opendss/dss_output/Feeders33.dss
! 33 kV feeders (one Line per feeder)
New Line.L33_132KV_KATAMPE_1_TS_33KV_WUSE_II_FDR_PL_PL Bus1=Bus_TS_KATAMPE_1 Bus2=Bus_F33_132KV_KATAMPE_1_TS_33KV_WUSE_II_FDR_PL_PL_End Length=1 Units=km LineCode=33kV_Standard
New Line.L33_132KV_APO_TS_33KV_FDR_H33_PL_PL Bus1=Bus_TS_AT3 Bus2=Bus_F33_132KV_APO_TS_33KV_FDR_H33_PL_PL_End Length=1 Units=km LineCode=33kV_Standard
New Line.L33_132KV_CENTRAL_AREA_TS_33KV_FDR_5_PL_PL Bus1=Bus_TS_AT5 Bus2=Bus_F33_132KV_CENTRAL_AREA_TS_33KV_FDR_5_PL_PL_End Length=1 Units=km LineCode=33kV_Standard
New Line.L33_132KV_APO_TS_33KV_FDR_H1_PL_PL Bus1=Bus_TS_AT3 Bus2=Bus_F33_132KV_APO_TS_33KV_FDR_H1_PL_PL_End Length=1 Units=km LineCode=33kV_Standard
New Line.L33_132KV_KATAMPE_1_TS_33KV_JABI_FDR_PL_PL Bus1=Bus_TS_KATAMPE_1 Bus2=Bus_F33_132KV_KATAMPE_1_TS_33KV_JABI_FDR_PL_PL_End Length=1 Units=km LineCode=33kV_Standard
New Line.L33_132KV_AJAOKUTA_TS_33KV_ADOGO_FDR_PL_PL Bus1=Bus_TS_AJAOKUTA Bus2=Bus_F33_132KV_AJAOKUTA_TS_33KV_ADOGO_FDR_PL_PL_End Length=1 Units=km LineCode=33kV_Standard
New Line.L33_132KV_AJAOKUTA_TS_33KV_ANYIGBA_FDR_PL_PL Bus1=Bus_TS_AJAOKUTA Bus2=Bus_F33_132KV_AJAOKUTA_TS_33KV_ANYIGBA_FDR_PL_PL_End Length=1 Units=km LineCode=33kV_Standard
New Line.L33_33OKV_APIR-LAFIA_LINE_1and2_132KV_LAFIA_TS_33KV_FDR_A2_PL_PL Bus1=Bus_TS_LAFIA Bus2=Bus_F33_33OKV_APIR-LAFIA_LINE_1and2_132KV_LAFIA_TS_33KV_FDR_A2_PL_PL_End Length=1 Units=km LineCode=33kV_Standard
New Line.L33_132KV_KATAMPE_1_TS_33KV_9MOBILE_FDR_PL_PL Bus1=Bus_TS_KATAMPE_1 Bus2=Bus_F33_132KV_KATAMPE_1_TS_33KV_9MOBILE_FDR_PL_PL_End Length=1 Units=km LineCode=33kV_Standard
New Line.L33_132KV_KATAMPE_1_TS_33KV_GWARINPA_FDR_PL_PL Bus1=Bus_TS_KATAMPE_1 Bus2=Bus_F33_132KV_KATAMPE_1_TS_33KV_GWARINPA_FDR_PL_PL_End Length=1 Units=km LineCode=33kV_Standard
New Line.L33_132KV_KATAMPE_2_TS_33KV_JAHI_FDR_PL_PL Bus1=Bus_TS_KATAMPE_2 Bus2=Bus_F33_132KV_KATAMPE_2_TS_33KV_JAHI_FDR_PL_PL_End Length=1 Units=km LineCode=33kV_Standard
New Line.L33_132KV_KATAMPE_1_TS_33KV_LIFECAMP_FDR_PL_PL Bus1=Bus_TS_KATAMPE_1 Bus2=Bus_F33_132KV_KATAMPE_1_TS_33KV_LIFECAMP_FDR_PL_PL_End Length=1 Units=km LineCode=33kV_Standard
New Line.L33_132KV_KATAMPE_2_TS_33KV_MAITAMA_FDR_PL_PL Bus1=Bus_TS_KATAMPE_2 Bus2=Bus_F33_132KV_KATAMPE_2_TS_33KV_MAITAMA_FDR_PL_PL_End Length=1 Units=km LineCode=33kV_Standard
New Line.L33_132KV_KATAMPE_2_TS_33KV_MPAPE_FDR_PL_PL Bus1=Bus_TS_KATAMPE_2 Bus2=Bus_F33_132KV_KATAMPE_2_TS_33KV_MPAPE_FDR_PL_PL_End Length=1 Units=km LineCode=33kV_Standard
New Line.L33_132KV_APO_TS_33KV_FDR_H2_PL_PL Bus1=Bus_TS_AT3 Bus2=Bus_F33_132KV_APO_TS_33KV_FDR_H2_PL_PL_End Length=1 Units=km LineCode=33kV_Standard
New Line.L33_132KV_APO_TS_33KV_FDR_H21_PL_PL Bus1=Bus_TS_AT3 Bus2=Bus_F33_132KV_APO_TS_33KV_FDR_H21_PL_PL_End Length=1 Units=km LineCode=33kV_Standard
New Line.L33_132KV_APO_TS_33KV_FDR_H23_PL_PL Bus1=Bus_TS_AT3 Bus2=Bus_F33_132KV_APO_TS_33KV_FDR_H23_PL_PL_End Length=1 Units=km LineCode=33kV_Standard
New Line.L33_132KV_APO_TS_33KV_FDR_H3_PL_PL Bus1=Bus_TS_AT3 Bus2=Bus_F33_132KV_APO_TS_33KV_FDR_H3_PL_PL_End Length=1 Units=km LineCode=33kV_Standard
New Line.L33_132KV_APO_TS_33KV_FDR_H31_PL_PL Bus1=Bus_TS_AT3 Bus2=Bus_F33_132KV_APO_TS_33KV_FDR_H31_PL_PL_End Length=1 Units=km LineCode=33kV_Standard
New Line.L33_132KV_APO_TS_33KV_FDR_H35_PL_PL Bus1=Bus_TS_AT3 Bus2=Bus_F33_132KV_APO_TS_33KV_FDR_H35_PL_PL_End Length=1 Units=km LineCode=33kV_Standard
New Line.L33_132KV_APO_TS_33KV_FDR_H37_PL_PL Bus1=Bus_TS_AT3 Bus2=Bus_F33_132KV_APO_TS_33KV_FDR_H37_PL_PL_End Length=1 Units=km LineCode=33kV_Standard
New Line.L33_132KV_APO_TS_33KV_FDR_H5_PL_PL Bus1=Bus_TS_AT3 Bus2=Bus_F33_132KV_APO_TS_33KV_FDR_H5_PL_PL_End Length=1 Units=km LineCode=33kV_Standard
New Line.L33_132KV_KUBWA_TS_33KV_BWARI_FDR_PL_PL Bus1=Bus_TS_AT4 Bus2=Bus_F33_132KV_KUBWA_TS_33KV_BWARI_FDR_PL_PL_End Length=1 Units=km LineCode=33kV_Standard
New Line.L33_132KV_KUBWA_TS_33KV_DAM_FDR_PL_PL Bus1=Bus_TS_AT4 Bus2=Bus_F33_132KV_KUBWA_TS_33KV_DAM_FDR_PL_PL_End Length=1 Units=km LineCode=33kV_Standard
New Line.L33_132KV_KUBWA_TS_33KV_DAWAKI_FDR_PL_PL Bus1=Bus_TS_AT4 Bus2=Bus_F33_132KV_KUBWA_TS_33KV_DAWAKI_FDR_PL_PL_End Length=1 Units=km LineCode=33kV_Standard
New Line.L33_132KV_KUBWA_TS_33KV_DEIDEI_FDR_PL_PL Bus1=Bus_TS_AT4 Bus2=Bus_F33_132KV_KUBWA_TS_33KV_DEIDEI_FDR_PL_PL_End Length=1 Units=km LineCode=33kV_Standard
New Line.L33_132KV_KUBWA_TS_33KV_KUBWA_FDR_PL_PL Bus1=Bus_TS_AT4 Bus2=Bus_F33_132KV_KUBWA_TS_33KV_KUBWA_FDR_PL_PL_End Length=1 Units=km LineCode=33kV_Standard
New Line.L33_132KV_KUBWA_TS_33KV_NIPP_FDR_PL_PL Bus1=Bus_TS_AT4 Bus2=Bus_F33_132KV_KUBWA_TS_33KV_NIPP_FDR_PL_PL_End Length=1 Units=km LineCode=33kV_Standard
New Line.L33_132KV_CENTRAL_AREA_TS_33KV_FDR_4_PL_PL Bus1=Bus_TS_AT5 Bus2=Bus_F33_132KV_CENTRAL_AREA_TS_33KV_FDR_4_PL_PL_End Length=1 Units=km LineCode=33kV_Standard
New Line.L33_132KV_CENTRAL_AREA_TS_33KV_FDR_2_PL_PL Bus1=Bus_TS_AT5 Bus2=Bus_F33_132KV_CENTRAL_AREA_TS_33KV_FDR_2_PL_PL_End Length=1 Units=km LineCode=33kV_Standard
New Line.L33_132KV_CENTRAL_AREA_TS_33KV_FDR_3_PL_PL Bus1=Bus_TS_AT5 Bus2=Bus_F33_132KV_CENTRAL_AREA_TS_33KV_FDR_3_PL_PL_End Length=1 Units=km LineCode=33kV_Standard
New Line.L33_132KV_CENTRAL_AREA_TS_33KV_FDR_6_PL_PL Bus1=Bus_TS_AT5 Bus2=Bus_F33_132KV_CENTRAL_AREA_TS_33KV_FDR_6_PL_PL_End Length=1 Units=km LineCode=33kV_Standard
New Line.L33_132KV_CENTRAL_AREA_TS_33KV_FDR_8_PL_PL Bus1=Bus_TS_AT5 Bus2=Bus_F33_132KV_CENTRAL_AREA_TS_33KV_FDR_8_PL_PL_End Length=1 Units=km LineCode=33kV_Standard
New Line.L33_132KV_SULEJA_TS_33KV_FIELDBASE_FDR_PL_PL Bus1=Bus_TS_AT6 Bus2=Bus_F33_132KV_SULEJA_TS_33KV_FIELDBASE_FDR_PL_PL_End Length=1 Units=km LineCode=33kV_Standard
New Line.L33_132KV_SULEJA_TS_33KV_JERE_FDR_PL_PL Bus1=Bus_TS_AT6 Bus2=Bus_F33_132KV_SULEJA_TS_33KV_JERE_FDR_PL_PL_End Length=1 Units=km LineCode=33kV_Standard
New Line.L33_132KV_SULEJA_TS_33KV_JIWA_FDR_PL_PL Bus1=Bus_TS_AT6 Bus2=Bus_F33_132KV_SULEJA_TS_33KV_JIWA_FDR_PL_PL_End Length=1 Units=km LineCode=33kV_Standard
New Line.L33_132KV_SULEJA_TS_33KV_SULEJA_FDR_PL_PL Bus1=Bus_TS_AT6 Bus2=Bus_F33_132KV_SULEJA_TS_33KV_SULEJA_FDR_PL_PL_End Length=1 Units=km LineCode=33kV_Standard
New Line.L33_132KV_SULEJA_T_S_T1_PL_PL Bus1=Bus_TS_AT6 Bus2=Bus_F33_132KV_SULEJA_T_S_T1_PL_PL_End Length=1 Units=km LineCode=33kV_Standard
New Line.L33_132KV_AKWANGA_TS_33KV_FDR_2_LAFIA_PL_PL Bus1=Bus_TS_AT7 Bus2=Bus_F33_132KV_AKWANGA_TS_33KV_FDR_2_LAFIA_PL_PL_End Length=1 Units=km LineCode=33kV_Standard
New Line.L33_132KV_KEFFI_TS_33KV_UKE_MASAKA_FDR_PL_PL Bus1=Bus_TS_AT8 Bus2=Bus_F33_132KV_KEFFI_TS_33KV_UKE_MASAKA_FDR_PL_PL_End Length=1 Units=km LineCode=33kV_Standard
New Line.L33_132KV_KARU_TS_33KV_FDR_K1_PL_PL Bus1=Bus_TS_AT9 Bus2=Bus_F33_132KV_KARU_TS_33KV_FDR_K1_PL_PL_End Length=1 Units=km LineCode=33kV_Standard
New Line.L33_132KV_KARU_TS_33KV_FDR_K2_PL_PL Bus1=Bus_TS_AT9 Bus2=Bus_F33_132KV_KARU_TS_33KV_FDR_K2_PL_PL_End Length=1 Units=km LineCode=33kV_Standard
New Line.L33_132KV_KARU_TS_33KV_FDR_K3_PL_PL Bus1=Bus_TS_AT9 Bus2=Bus_F33_132KV_KARU_TS_33KV_FDR_K3_PL_PL_End Length=1 Units=km LineCode=33kV_Standard
New Line.L33_132KV_KARU_TS_33KV_FDR_K4_PL_PL Bus1=Bus_TS_AT9 Bus2=Bus_F33_132KV_KARU_TS_33KV_FDR_K4_PL_PL_End Length=1 Units=km LineCode=33kV_Standard
New Line.L33_132KV_KARU_TS_33KV_FDR_K5_PL_PL Bus1=Bus_TS_AT9 Bus2=Bus_F33_132KV_KARU_TS_33KV_FDR_K5_PL_PL_End Length=1 Units=km LineCode=33kV_Standard
New Line.L33_132KV_KARU_TS_33KV_FDR_K6_PL_PL Bus1=Bus_TS_AT9 Bus2=Bus_F33_132KV_KARU_TS_33KV_FDR_K6_PL_PL_End Length=1 Units=km LineCode=33kV_Standard
New Line.L33_132KV_BIDA_TS_T4_PL_PL Bus1=Bus_TS_BIDA Bus2=Bus_F33_132KV_BIDA_TS_T4_PL_PL_End Length=1 Units=km LineCode=33kV_Standard
New Line.L33_132KV_GWAGWALADA_TS_33KV_FDR_L31_PL_PL Bus1=Bus_TS_GW Bus2=Bus_F33_132KV_GWAGWALADA_TS_33KV_FDR_L31_PL_PL_End Length=1 Units=km LineCode=33kV_Standard
New Line.L33_132KV_GWAGWALADA_TS_33KV_FDR_L32_PL_PL Bus1=Bus_TS_GW Bus2=Bus_F33_132KV_GWAGWALADA_TS_33KV_FDR_L32_PL_PL_End Length=1 Units=km LineCode=33kV_Standard
New Line.L33_132KV_GWAGWALADA_TS_33KV_FDR_L35_PL_PL Bus1=Bus_TS_GW Bus2=Bus_F33_132KV_GWAGWALADA_TS_33KV_FDR_L35_PL_PL_End Length=1 Units=km LineCode=33kV_Standard
New Line.L33_132KV_GWAGWALADA_TS_33KV_FDR_L36_PL_PL Bus1=Bus_TS_GW Bus2=Bus_F33_132KV_GWAGWALADA_TS_33KV_FDR_L36_PL_PL_End Length=1 Units=km LineCode=33kV_Standard
New Line.L33_132KV_KUKWABA_TS_33KV_FDR_L31_PL_PL Bus1=Bus_TS_KUKWABA Bus2=Bus_F33_132KV_KUKWABA_TS_33KV_FDR_L31_PL_PL_End Length=1 Units=km LineCode=33kV_Standard
New Line.L33_132KV_KUKWABA_TS_33KV_FDR_L32_PL_PL Bus1=Bus_TS_KUKWABA Bus2=Bus_F33_132KV_KUKWABA_TS_33KV_FDR_L32_PL_PL_End Length=1 Units=km LineCode=33kV_Standard
New Line.L33_132KV_KUKWABA_TS_33KV_FDR_L33_PL_PL Bus1=Bus_TS_KUKWABA Bus2=Bus_F33_132KV_KUKWABA_TS_33KV_FDR_L33_PL_PL_End Length=1 Units=km LineCode=33kV_Standard
New Line.L33_132KV_KUKWABA_TS_33KV_FDR_L34_PL_PL Bus1=Bus_TS_KUKWABA Bus2=Bus_F33_132KV_KUKWABA_TS_33KV_FDR_L34_PL_PL_End Length=1 Units=km LineCode=33kV_Standard
New Line.L33_132KV_KUKWABA_TS_33KV_FDR_L35_PL_PL Bus1=Bus_TS_KUKWABA Bus2=Bus_F33_132KV_KUKWABA_TS_33KV_FDR_L35_PL_PL_End Length=1 Units=km LineCode=33kV_Standard
New Line.L33_132KV_KUKWABA_TS_33KV_FDR_L36_PL_PL Bus1=Bus_TS_KUKWABA Bus2=Bus_F33_132KV_KUKWABA_TS_33KV_FDR_L36_PL_PL_End Length=1 Units=km LineCode=33kV_Standard
New Line.L33_132KV_MINNA_TS_33KV_POWER_HOUSE_FDR_PL_PL Bus1=Bus_TS_MINNA Bus2=Bus_F33_132KV_MINNA_TS_33KV_POWER_HOUSE_FDR_PL_PL_End Length=1 Units=km LineCode=33kV_Standard
New Line.L33_132KV_MINNA_TS_33KV_T4_PL_PL Bus1=Bus_TS_MINNA Bus2=Bus_F33_132KV_MINNA_TS_33KV_T4_PL_PL_End Length=1 Units=km LineCode=33kV_Standard
New Line.L33_132KV_OKENE_TS_33KV_ISANLU_FDR_PL_PL Bus1=Bus_TS_OKENE Bus2=Bus_F33_132KV_OKENE_TS_33KV_ISANLU_FDR_PL_PL_End Length=1 Units=km LineCode=33kV_Standard
New Line.L33_132KV_SHIRORO_TS_33KV_GWADA_FDR_PL_PL Bus1=Bus_TS_SHIRORO Bus2=Bus_F33_132KV_SHIRORO_TS_33KV_GWADA_FDR_PL_PL_End Length=1 Units=km LineCode=33kV_Standard
New Line.L33_132KV_AJAOKUTA_TS_33KV_CONFLUENCE_FDR_PL_PL Bus1=Bus_TS_AJAOKUTA Bus2=Bus_F33_132KV_AJAOKUTA_TS_33KV_CONFLUENCE_FDR_PL_PL_End Length=1 Units=km LineCode=33kV_Standard
New Line.L33_132KV_AJAOKUTA_TS_33KV_STEEL_PLANT_FDR_PL_PL Bus1=Bus_TS_AJAOKUTA Bus2=Bus_F33_132KV_AJAOKUTA_TS_33KV_STEEL_PLANT_FDR_PL_PL_End Length=1 Units=km LineCode=33kV_Standard
New Line.L33_33OKV_APIR-LAFIA_LINE_1and2_132KV_LAFIA_TS_33KV_FDR_A5_PL_PL Bus1=Bus_TS_LAFIA Bus2=Bus_F33_33OKV_APIR-LAFIA_LINE_1and2_132KV_LAFIA_TS_33KV_FDR_A5_PL_PL_End Length=1 Units=km LineCode=33kV_Standard
New Line.L33_132KV_SULEJA_TS_33KV_ABUJA_STEEL_FDR_PL_PL Bus1=Bus_TS_AT6 Bus2=Bus_F33_132KV_SULEJA_TS_33KV_ABUJA_STEEL_FDR_PL_PL_End Length=1 Units=km LineCode=33kV_Standard
New Line.L33_132KV_SULEJA_TS_33KV_INDUSTRIAL_FDR_PL_PL Bus1=Bus_TS_AT6 Bus2=Bus_F33_132KV_SULEJA_TS_33KV_INDUSTRIAL_FDR_PL_PL_End Length=1 Units=km LineCode=33kV_Standard
New Line.L33_132KV_AKWANGA_TS_33KV_FDR_1_AKWANGA_FDR_PL_PL Bus1=Bus_TS_AT7 Bus2=Bus_F33_132KV_AKWANGA_TS_33KV_FDR_1_AKWANGA_FDR_PL_PL_End Length=1 Units=km LineCode=33kV_Standard
New Line.L33_132KV_AKWANGA_TS_33KV_FDR_3WATERBOARD_PL_PL Bus1=Bus_TS_AT7 Bus2=Bus_F33_132KV_AKWANGA_TS_33KV_FDR_3WATERBOARD_PL_PL_End Length=1 Units=km LineCode=33kV_Standard
New Line.L33_132KV_KEFFI_TS_33KV_GRA_FDR_PL_PL Bus1=Bus_TS_AT8 Bus2=Bus_F33_132KV_KEFFI_TS_33KV_GRA_FDR_PL_PL_End Length=1 Units=km LineCode=33kV_Standard
New Line.L33_132KV_KEFFI_TS_33KV_KEFFI_FDR_PL_PL Bus1=Bus_TS_AT8 Bus2=Bus_F33_132KV_KEFFI_TS_33KV_KEFFI_FDR_PL_PL_End Length=1 Units=km LineCode=33kV_Standard
New Line.L33_132KV_KEFFI_TS_33KV_NASARAWA_FDR_PL_PL Bus1=Bus_TS_AT8 Bus2=Bus_F33_132KV_KEFFI_TS_33KV_NASARAWA_FDR_PL_PL_End Length=1 Units=km LineCode=33kV_Standard
New Line.L33_132KV_BIDA_TS_33KV_AGAIE_FDR_PL_PL Bus1=Bus_TS_BIDA Bus2=Bus_F33_132KV_BIDA_TS_33KV_AGAIE_FDR_PL_PL_End Length=1 Units=km LineCode=33kV_Standard
New Line.L33_132KV_BIDA_TS_33KV_DOKO_FDR_PL_PL Bus1=Bus_TS_BIDA Bus2=Bus_F33_132KV_BIDA_TS_33KV_DOKO_FDR_PL_PL_End Length=1 Units=km LineCode=33kV_Standard
New Line.L33_132KV_BIDA_TS_33KV_KUTIGI_FDR_PL_PL Bus1=Bus_TS_BIDA Bus2=Bus_F33_132KV_BIDA_TS_33KV_KUTIGI_FDR_PL_PL_End Length=1 Units=km LineCode=33kV_Standard
New Line.L33_132KV_BIDA_TS_33KV_LEMU_FDR_PL_PL Bus1=Bus_TS_BIDA Bus2=Bus_F33_132KV_BIDA_TS_33KV_LEMU_FDR_PL_PL_End Length=1 Units=km LineCode=33kV_Standard
New Line.L33_132KV_BIDA_TS_33KV_NEW_AGAIE_FDR_PL_PL Bus1=Bus_TS_BIDA Bus2=Bus_F33_132KV_BIDA_TS_33KV_NEW_AGAIE_FDR_PL_PL_End Length=1 Units=km LineCode=33kV_Standard
New Line.L33_132KV_KONTAGORA_TS_33KV_TOWN_FDR_PL_PL Bus1=Bus_TS_KONTAGORA Bus2=Bus_F33_132KV_KONTAGORA_TS_33KV_TOWN_FDR_PL_PL_End Length=1 Units=km LineCode=33kV_Standard
New Line.L33_132KV_KONTAGORA_TS_33KV_WATER_WORKS_FDR_PL_PL Bus1=Bus_TS_KONTAGORA Bus2=Bus_F33_132KV_KONTAGORA_TS_33KV_WATER_WORKS_FDR_PL_PL_End Length=1 Units=km LineCode=33kV_Standard
New Line.L33_132KV_LOKOJA_TS_33KV_FDR_1_PL_PL Bus1=Bus_TS_LOKOJA Bus2=Bus_F33_132KV_LOKOJA_TS_33KV_FDR_1_PL_PL_End Length=1 Units=km LineCode=33kV_Standard
New Line.L33_132KV_LOKOJA_TS_33KV_FDR_2_PL_PL Bus1=Bus_TS_LOKOJA Bus2=Bus_F33_132KV_LOKOJA_TS_33KV_FDR_2_PL_PL_End Length=1 Units=km LineCode=33kV_Standard
New Line.L33_132KV_LOKOJA_TS_33KV_FDR_3_CBN_PL_PL Bus1=Bus_TS_LOKOJA Bus2=Bus_F33_132KV_LOKOJA_TS_33KV_FDR_3_CBN_PL_PL_End Length=1 Units=km LineCode=33kV_Standard
New Line.L33_132KV_MINNA_TS_33KV_BIRIGI_FDR_PL_PL Bus1=Bus_TS_MINNA Bus2=Bus_F33_132KV_MINNA_TS_33KV_BIRIGI_FDR_PL_PL_End Length=1 Units=km LineCode=33kV_Standard
New Line.L33_132KV_MINNA_TS_33KV_FUT_FDR_PL_PL Bus1=Bus_TS_MINNA Bus2=Bus_F33_132KV_MINNA_TS_33KV_FUT_FDR_PL_PL_End Length=1 Units=km LineCode=33kV_Standard
New Line.L33_132KV_MINNA_TS_33KV_KATAREGI_FDR_PL_PL Bus1=Bus_TS_MINNA Bus2=Bus_F33_132KV_MINNA_TS_33KV_KATAREGI_FDR_PL_PL_End Length=1 Units=km LineCode=33kV_Standard
New Line.L33_132KV_MINNA_TS_33KV_LAPAI_FDR_PL_PL Bus1=Bus_TS_MINNA Bus2=Bus_F33_132KV_MINNA_TS_33KV_LAPAI_FDR_PL_PL_End Length=1 Units=km LineCode=33kV_Standard
New Line.L33_132KV_MINNA_TS_33KV_MAIKUNKELE_FDR_PL_PL Bus1=Bus_TS_MINNA Bus2=Bus_F33_132KV_MINNA_TS_33KV_MAIKUNKELE_FDR_PL_PL_End Length=1 Units=km LineCode=33kV_Standard
New Line.L33_132KV_MINNA_TS_33KV_NNPC_FDR_PL_PL Bus1=Bus_TS_MINNA Bus2=Bus_F33_132KV_MINNA_TS_33KV_NNPC_FDR_PL_PL_End Length=1 Units=km LineCode=33kV_Standard
New Line.L33_132KV_MINNA_TS_33KV_ZARUMAI_FDR_PL_PL Bus1=Bus_TS_MINNA Bus2=Bus_F33_132KV_MINNA_TS_33KV_ZARUMAI_FDR_PL_PL_End Length=1 Units=km LineCode=33kV_Standard
New Line.L33_132KV_OKENE_TS_33KV_IKARE_FDR_PL_PL Bus1=Bus_TS_OKENE Bus2=Bus_F33_132KV_OKENE_TS_33KV_IKARE_FDR_PL_PL_End Length=1 Units=km LineCode=33kV_Standard
New Line.L33_132KV_OKENE_TS_33KV_OKENE_FDR_PL_PL Bus1=Bus_TS_OKENE Bus2=Bus_F33_132KV_OKENE_TS_33KV_OKENE_FDR_PL_PL_End Length=1 Units=km LineCode=33kV_Standard
New Line.L33_132KV_OKENE_TS_33KV_OKENE_2_FDR_PL_PL Bus1=Bus_TS_OKENE Bus2=Bus_F33_132KV_OKENE_TS_33KV_OKENE_2_FDR_PL_PL_End Length=1 Units=km LineCode=33kV_Standard
New Line.L33_132KV_OKENE_TS_33KV_OSOSO_FDR_PL_PL Bus1=Bus_TS_OKENE Bus2=Bus_F33_132KV_OKENE_TS_33KV_OSOSO_FDR_PL_PL_End Length=1 Units=km LineCode=33kV_Standard
New Line.L33_132KV_TEGINA_TS_33KV_KAGARA_FDR_PL_PL Bus1=Bus_TS_TEGINA Bus2=Bus_F33_132KV_TEGINA_TS_33KV_KAGARA_FDR_PL_PL_End Length=1 Units=km LineCode=33kV_Standard
New Line.L33_132KV_TEGINA_TS_33KV_MARIGA_FDR_PL_PL Bus1=Bus_TS_TEGINA Bus2=Bus_F33_132KV_TEGINA_TS_33KV_MARIGA_FDR_PL_PL_End Length=1 Units=km LineCode=33kV_Standard
New Line.L33_132KV_BIDA_TS_T3_PL_PL Bus1=Bus_TS_BIDA Bus2=Bus_F33_132KV_BIDA_TS_T3_PL_PL_End Length=1 Units=km LineCode=33kV_Standard
New Line.L33_132KV_KONTAGORA_TS_33KV_ARMY_BARRACKS_FDR_PL_PL Bus1=Bus_TS_KONTAGORA Bus2=Bus_F33_132KV_KONTAGORA_TS_33KV_ARMY_BARRACKS_FDR_PL_PL_End Length=1 Units=km LineCode=33kV_Standard
New Line.L33_132KV_APO_TS_33KV_FDR_H11_PL_PL Bus1=Bus_TS_AT3 Bus2=Bus_F33_132KV_APO_TS_33KV_FDR_H11_PL_PL_End Length=1 Units=km LineCode=33kV_Standard
New Line.L33_33OKV_APIR-LAFIA_LINE_1and2_132KV_LAFIA_TS_33KV_FDR_A1_PL_PL Bus1=Bus_TS_LAFIA Bus2=Bus_F33_33OKV_APIR-LAFIA_LINE_1and2_132KV_LAFIA_TS_33KV_FDR_A1_PL_PL_End Length=1 Units=km LineCode=33kV_Standard
New Line.L33_132KV_GIS_DAWAKI_TS_33KV_FDR_D1_PL_PL Bus1=Bus_TS_GIS_DAWAKI Bus2=Bus_F33_132KV_GIS_DAWAKI_TS_33KV_FDR_D1_PL_PL_End Length=1 Units=km LineCode=33kV_Standard
New Line.L33_132KV_KEFFI_TS_33KV_AVATAR_FDR_PL_PL Bus1=Bus_TS_AT8 Bus2=Bus_F33_132KV_KEFFI_TS_33KV_AVATAR_FDR_PL_PL_End Length=1 Units=km LineCode=33kV_Standard
New Line.L33_132KV_GIS_DAWAKI_TS_33KV_FDR_D2_PL_PL Bus1=Bus_TS_GIS_DAWAKI Bus2=Bus_F33_132KV_GIS_DAWAKI_TS_33KV_FDR_D2_PL_PL_End Length=1 Units=km LineCode=33kV_Standard
New Line.L33_132KV_GWAGWALADA_TS_33KV_FDR_L34_PL_PL Bus1=Bus_TS_GW Bus2=Bus_F33_132KV_GWAGWALADA_TS_33KV_FDR_L34_PL_PL_End Length=1 Units=km LineCode=33kV_Standard
New Line.L33_132KV_KEFFI_TS_33KV_SMART_FDR_PL_PL Bus1=Bus_TS_AT8 Bus2=Bus_F33_132KV_KEFFI_TS_33KV_SMART_FDR_PL_PL_End Length=1 Units=km LineCode=33kV_Standard
New Line.L33_132KV_APO_TS_33KV_FDR_H15_PL_PL Bus1=Bus_TS_AT3 Bus2=Bus_F33_132KV_APO_TS_33KV_FDR_H15_PL_PL_End Length=1 Units=km LineCode=33kV_Standard
New Line.L33_132KV_KONTAGORA_TS_33KV_MASUGA_FDR_PL_PL Bus1=Bus_TS_KONTAGORA Bus2=Bus_F33_132KV_KONTAGORA_TS_33KV_MASUGA_FDR_PL_PL_End Length=1 Units=km LineCode=33kV_Standard
New Line.L33_132KV_GIS_DAWAKI_TS_33KV_FDR_D6_PL_PL Bus1=Bus_TS_GIS_DAWAKI Bus2=Bus_F33_132KV_GIS_DAWAKI_TS_33KV_FDR_D6_PL_PL_End Length=1 Units=km LineCode=33kV_Standard
New Line.L33_132KV_MINNA_TS_33KV_BIRGI_FDR_PL_PL_HIGH_POINT Bus1=Bus_TS_MINNA Bus2=Bus_F33_132KV_MINNA_TS_33KV_BIRGI_FDR_PL_PL_HIGH_POINT_End Length=1 Units=km LineCode=33kV_Standard
New Line.L33_132KV_LOKOJA_T_S_33KV_FDR_1_KOTO_GEGU_PL_PL Bus1=Bus_TS_LOKOJA Bus2=Bus_F33_132KV_LOKOJA_T_S_33KV_FDR_1_KOTO_GEGU_PL_PL_End Length=1 Units=km LineCode=33kV_Standard
New Line.L33_132KV_SHIRORO_TS_33KV_ERENA_FDR_PL_PL Bus1=Bus_TS_SHIRORO Bus2=Bus_F33_132KV_SHIRORO_TS_33KV_ERENA_FDR_PL_PL_End Length=1 Units=km LineCode=33kV_Standard
New Line.L33_132KV_KONTAGORA_TS_33KV_ARMY_BARRACKS
FDR_PL_PL Bus1=Bus_TS_KONTAGORA Bus2=Bus_F33_132KV_KONTAGORA_TS_33KV_ARMY_BARRACKS
FDR_PL_PL_End Length=1 Units=km LineCode=33kV_Standard
New Line.L33_OKENE_LOKOJA_OKENE_PL_PL Bus1=Bus_TS_OKENE Bus2=Bus_F33_OKENE_LOKOJA_OKENE_PL_PL_End Length=1 Units=km LineCode=33kV_Standard
New Line.L33_132KV_SULEJA_TS Bus1=Bus_TS_AT6 Bus2=Bus_F33_132KV_SULEJA_TS_End Length=1 Units=km LineCode=33kV_Standard
New Line.L33_132KV_SULEJA_TS_33KV_GOODA_PLUSTECH_FDR_PL_PL Bus1=Bus_TS_AT6 Bus2=Bus_F33_132KV_SULEJA_TS_33KV_GOODA_PLUSTECH_FDR_PL_PL_End Length=1 Units=km LineCode=33kV_Standard
New Line.L33_132KV_AJAOKUTA_TS_33KV_WEST_AFRICA_CERAMICS_FDR_PL_PL Bus1=Bus_TS_AJAOKUTA Bus2=Bus_F33_132KV_AJAOKUTA_TS_33KV_WEST_AFRICA_CERAMICS_FDR_PL_PL_End Length=1 Units=km LineCode=33kV_Standard
New Line.L33_132KV_MINNA_TS_33KV_BIRGI_FDR_PL_PL_HIGH_POINT_2 Bus1=Bus_TS_MINNA Bus2=Bus_F33_132KV_MINNA_TS_33KV_BIRGI_FDR_PL_PL_HIGH_POINT_2_End Length=1 Units=km LineCode=33kV_Standard
New Line.L33_132KV_LOKOJA_T_S_33KV_FDR_1_KOTO_GEGU_PL_PL_2 Bus1=Bus_TS_LOKOJA Bus2=Bus_F33_132KV_LOKOJA_T_S_33KV_FDR_1_KOTO_GEGU_PL_PL_2_End Length=1 Units=km LineCode=33kV_Standard
New Line.L33_132KV_MINNA_TS_33KV_BIRGI_FDR_PL_PL_HIGH_POINT_3 Bus1=Bus_TS_MINNA Bus2=Bus_F33_132KV_MINNA_TS_33KV_BIRGI_FDR_PL_PL_HIGH_POINT_3_End Length=1 Units=km LineCode=33kV_Standard
New Line.L33_132KV_SULEJA_T_S_T1_PL_PL_2 Bus1=Bus_TS_AT6 Bus2=Bus_F33_132KV_SULEJA_T_S_T1_PL_PL_2_End Length=1 Units=km LineCode=33kV_Standard
New Line.L33_132KV_BIDA_TS_T3_PL_PL_2 Bus1=Bus_TS_BIDA Bus2=Bus_F33_132KV_BIDA_TS_T3_PL_PL_2_End Length=1 Units=km LineCode=33kV_Standard
New Line.L33_132KV_MINNA_TS_33KV_T4_PL_PL_2 Bus1=Bus_TS_MINNA Bus2=Bus_F33_132KV_MINNA_TS_33KV_T4_PL_PL_2_End Length=1 Units=km LineCode=33kV_Standard
New Line.L33_132KV_BIDA_TS_T4_PL_PL_2 Bus1=Bus_TS_BIDA Bus2=Bus_F33_132KV_BIDA_TS_T4_PL_PL_2_End Length=1 Units=km LineCode=33kV_Standard
New Line.L33_132KV_MINNA_TS_33KV_BIRGI_FDR_PL_PL_HIGH_POINT_4 Bus1=Bus_TS_MINNA Bus2=Bus_F33_132KV_MINNA_TS_33KV_BIRGI_FDR_PL_PL_HIGH_POINT_4_End Length=1 Units=km LineCode=33kV_Standard
New Line.L33_132KV_LOKOJA_T_S_33KV_FDR_1_KOTO_GEGU_PL_PL_3 Bus1=Bus_TS_LOKOJA Bus2=Bus_F33_132KV_LOKOJA_T_S_33KV_FDR_1_KOTO_GEGU_PL_PL_3_End Length=1 Units=km LineCode=33kV_Standard
New Line.L33_132KV_SULEJA_T_S_T1_PL_PL_3 Bus1=Bus_TS_AT6 Bus2=Bus_F33_132KV_SULEJA_T_S_T1_PL_PL_3_End Length=1 Units=km LineCode=33kV_Standard
New Line.L33_132KV_BIDA_TS_T3_PL_PL_3 Bus1=Bus_TS_BIDA Bus2=Bus_F33_132KV_BIDA_TS_T3_PL_PL_3_End Length=1 Units=km LineCode=33kV_Standard
New Line.L33_132KV_MINNA_TS_33KV_T4_PL_PL_3 Bus1=Bus_TS_MINNA Bus2=Bus_F33_132KV_MINNA_TS_33KV_T4_PL_PL_3_End Length=1 Units=km LineCode=33kV_Standard
New Line.L33_132KV_BIDA_TS_T4_PL_PL_3 Bus1=Bus_TS_BIDA Bus2=Bus_F33_132KV_BIDA_TS_T4_PL_PL_3_End Length=1 Units=km LineCode=33kV_Standard
New Line.L33_132KV_MINNA_TS_33KV_BIRGI_FDR_PL_PL_HIGH_POINT_5 Bus1=Bus_TS_MINNA Bus2=Bus_F33_132KV_MINNA_TS_33KV_BIRGI_FDR_PL_PL_HIGH_POINT_5_End Length=1 Units=km LineCode=33kV_Standard
New Line.L33_132KV_LOKOJA_T_S_33KV_FDR_1_KOTO_GEGU_PL_PL_4 Bus1=Bus_TS_LOKOJA Bus2=Bus_F33_132KV_LOKOJA_T_S_33KV_FDR_1_KOTO_GEGU_PL_PL_4_End Length=1 Units=km LineCode=33kV_Standard
New Line.L33_132KV_BIDA_TS_T3_PL_PL_4 Bus1=Bus_TS_BIDA Bus2=Bus_F33_132KV_BIDA_TS_T3_PL_PL_4_End Length=1 Units=km LineCode=33kV_Standard
New Line.L33_132KV_MINNA_TS_33KV_T4_PL_PL_4 Bus1=Bus_TS_MINNA Bus2=Bus_F33_132KV_MINNA_TS_33KV_T4_PL_PL_4_End Length=1 Units=km LineCode=33kV_Standard
New Line.L33_132KV_LOKOJA_T_S_33KV_FDR_1_KOTO_GEGU_PL_PL_5 Bus1=Bus_TS_LOKOJA Bus2=Bus_F33_132KV_LOKOJA_T_S_33KV_FDR_1_KOTO_GEGU_PL_PL_5_End Length=1 Units=km LineCode=33kV_Standard
New Line.L33_132KV_BIDA_TS_T3_PL_PL_5 Bus1=Bus_TS_BIDA Bus2=Bus_F33_132KV_BIDA_TS_T3_PL_PL_5_End Length=1 Units=km LineCode=33kV_Standard
New Line.L33_132KV_MINNA_TS_33KV_T4_PL_PL_5 Bus1=Bus_TS_MINNA Bus2=Bus_F33_132KV_MINNA_TS_33KV_T4_PL_PL_5_End Length=1 Units=km LineCode=33kV_Standard
New Line.L33_132KV_LOKOJA_T_S_33KV_FDR_1_KOTO_GEGU_PL_PL_6 Bus1=Bus_TS_LOKOJA Bus2=Bus_F33_132KV_LOKOJA_T_S_33KV_FDR_1_KOTO_GEGU_PL_PL_6_End Length=1 Units=km LineCode=33kV_Standard
New Line.L33_132KV_BIDA_TS_T3_PL_PL_6 Bus1=Bus_TS_BIDA Bus2=Bus_F33_132KV_BIDA_TS_T3_PL_PL_6_End Length=1 Units=km LineCode=33kV_Standard
New Line.L33_132KV_MINNA_TS_33KV_T4_PL_PL_6 Bus1=Bus_TS_MINNA Bus2=Bus_F33_132KV_MINNA_TS_33KV_T4_PL_PL_6_End Length=1 Units=km LineCode=33kV_Standard
New Line.L33_132KV_LOKOJA_T_S_33KV_FDR_1_KOTO_GEGU_PL_PL_7 Bus1=Bus_TS_LOKOJA Bus2=Bus_F33_132KV_LOKOJA_T_S_33KV_FDR_1_KOTO_GEGU_PL_PL_7_End Length=1 Units=km LineCode=33kV_Standard
New Line.L33_132KV_BIDA_TS_T3_PL_PL_7 Bus1=Bus_TS_BIDA Bus2=Bus_F33_132KV_BIDA_TS_T3_PL_PL_7_End Length=1 Units=km LineCode=33kV_Standard
New Line.L33_132KV_MINNA_TS_33KV_T4_PL_PL_7 Bus1=Bus_TS_MINNA Bus2=Bus_F33_132KV_MINNA_TS_33KV_T4_PL_PL_7_End Length=1 Units=km LineCode=33kV_Standard
New Line.L33_132KV_LOKOJA_T_S_33KV_FDR_1_KOTO_GEGU_PL_PL_8 Bus1=Bus_TS_LOKOJA Bus2=Bus_F33_132KV_LOKOJA_T_S_33KV_FDR_1_KOTO_GEGU_PL_PL_8_End Length=1 Units=km LineCode=33kV_Standard
New Line.L33_132KV_APO_TS_33KV_FDR_H13_JICA_PL_PL Bus1=Bus_TS_AT3 Bus2=Bus_F33_132KV_APO_TS_33KV_FDR_H13_JICA_PL_PL_End Length=1 Units=km LineCode=33kV_Standard
New Line.L33_132KV_SULEJA132KV_PL_PL Bus1=Bus_TS_AT6 Bus2=Bus_F33_132KV_SULEJA132KV_PL_PL_End Length=1 Units=km LineCode=33kV_Standard
New Line.L33_132KV_BIDA_TS_T3_PL_PL_8 Bus1=Bus_TS_BIDA Bus2=Bus_F33_132KV_BIDA_TS_T3_PL_PL_8_End Length=1 Units=km LineCode=33kV_Standard
New Line.L33_132KV_MINNA_TS_33KV_T4_PL_PL_8 Bus1=Bus_TS_MINNA Bus2=Bus_F33_132KV_MINNA_TS_33KV_T4_PL_PL_8_End Length=1 Units=km LineCode=33kV_Standard
New Line.L33_132KV_LOKOJA_T_S_33KV_FDR_1_KOTO_GEGU_PL_PL_9 Bus1=Bus_TS_LOKOJA Bus2=Bus_F33_132KV_LOKOJA_T_S_33KV_FDR_1_KOTO_GEGU_PL_PL_9_End Length=1 Units=km LineCode=33kV_Standard
New Line.L33_132KV_GIS_DAWAKI_FDR_33KV_FDR_D6_PL_PL Bus1=Bus_TS_GIS_DAWAKI Bus2=Bus_F33_132KV_GIS_DAWAKI_FDR_33KV_FDR_D6_PL_PL_End Length=1 Units=km LineCode=33kV_Standard
New Line.L33_132KV_BIDA_TS_T3_PL_PL_9 Bus1=Bus_TS_BIDA Bus2=Bus_F33_132KV_BIDA_TS_T3_PL_PL_9_End Length=1 Units=km LineCode=33kV_Standard
New Line.L33_132KV_MINNA_TS_33KV_T4_PL_PL_9 Bus1=Bus_TS_MINNA Bus2=Bus_F33_132KV_MINNA_TS_33KV_T4_PL_PL_9_End Length=1 Units=km LineCode=33kV_Standard
New Line.L33_132KV_GIS_DAWAKI_FDR_33KV_FDR_D6_PL_PL_2 Bus1=Bus_TS_GIS_DAWAKI Bus2=Bus_F33_132KV_GIS_DAWAKI_FDR_33KV_FDR_D6_PL_PL_2_End Length=1 Units=km LineCode=33kV_Standard
New Line.L33_132KV_LOKOJA_T_S_33KV_FDR_1_KOTO_GEGU_PL_PL_10 Bus1=Bus_TS_LOKOJA Bus2=Bus_F33_132KV_LOKOJA_T_S_33KV_FDR_1_KOTO_GEGU_PL_PL_10_End Length=1 Units=km LineCode=33kV_Standard
New Line.L33_132KV_BIDA_TS_T3_PL_PL_10 Bus1=Bus_TS_BIDA Bus2=Bus_F33_132KV_BIDA_TS_T3_PL_PL_10_End Length=1 Units=km LineCode=33kV_Standard
New Line.L33_132KV_GIS_DAWAKI_FDR_33KV_FDR_D6_PL_PL_3 Bus1=Bus_TS_GIS_DAWAKI Bus2=Bus_F33_132KV_GIS_DAWAKI_FDR_33KV_FDR_D6_PL_PL_3_End Length=1 Units=km LineCode=33kV_Standard
New Line.L33_132KV_LOKOJA_T_S_33KV_FDR_1_KOTO_GEGU_PL_PL_11 Bus1=Bus_TS_LOKOJA Bus2=Bus_F33_132KV_LOKOJA_T_S_33KV_FDR_1_KOTO_GEGU_PL_PL_11_End Length=1 Units=km LineCode=33kV_Standard
New Line.L33_132KV_BIDA_TS_T3_PL_PL_11 Bus1=Bus_TS_BIDA Bus2=Bus_F33_132KV_BIDA_TS_T3_PL_PL_11_End Length=1 Units=km LineCode=33kV_Standard
New Line.L33_132KV_GIS_DAWAKI_FDR_33KV_FDR_D6_PL_PL_4 Bus1=Bus_TS_GIS_DAWAKI Bus2=Bus_F33_132KV_GIS_DAWAKI_FDR_33KV_FDR_D6_PL_PL_4_End Length=1 Units=km LineCode=33kV_Standard
New Line.L33_132KV_LOKOJA_T_S_33KV_FDR_1_KOTO_GEGU_PL_PL_12 Bus1=Bus_TS_LOKOJA Bus2=Bus_F33_132KV_LOKOJA_T_S_33KV_FDR_1_KOTO_GEGU_PL_PL_12_End Length=1 Units=km LineCode=33kV_Standard
New Line.L33_132KV_BIDA_TS_T3_PL_PL_12 Bus1=Bus_TS_BIDA Bus2=Bus_F33_132KV_BIDA_TS_T3_PL_PL_12_End Length=1 Units=km LineCode=33kV_Standard
New Line.L33_132KV_GIS_DAWAKI_FDR_33KV_FDR_D6_PL_PL_5 Bus1=Bus_TS_GIS_DAWAKI Bus2=Bus_F33_132KV_GIS_DAWAKI_FDR_33KV_FDR_D6_PL_PL_5_End Length=1 Units=km LineCode=33kV_Standard
New Line.L33_132KV_LOKOJA_T_S_33KV_FDR_1_KOTO_GEGU_PL_PL_13 Bus1=Bus_TS_LOKOJA Bus2=Bus_F33_132KV_LOKOJA_T_S_33KV_FDR_1_KOTO_GEGU_PL_PL_13_End Length=1 Units=km LineCode=33kV_Standard
New Line.L33_132KV_BIDA_TS_T3_PL_PL_13 Bus1=Bus_TS_BIDA Bus2=Bus_F33_132KV_BIDA_TS_T3_PL_PL_13_End Length=1 Units=km LineCode=33kV_Standard
New Line.L33_132KV_GIS_DAWAKI_FDR_33KV_FDR_D6_PL_PL_6 Bus1=Bus_TS_GIS_DAWAKI Bus2=Bus_F33_132KV_GIS_DAWAKI_FDR_33KV_FDR_D6_PL_PL_6_End Length=1 Units=km LineCode=33kV_Standard
New Line.L33_132KV_LOKOJA_T_S_33KV_FDR_1_KOTO_GEGU_PL_PL_14 Bus1=Bus_TS_LOKOJA Bus2=Bus_F33_132KV_LOKOJA_T_S_33KV_FDR_1_KOTO_GEGU_PL_PL_14_End Length=1 Units=km LineCode=33kV_Standard
New Line.L33_132KV_BIDA_TS_T3_PL_PL_14 Bus1=Bus_TS_BIDA Bus2=Bus_F33_132KV_BIDA_TS_T3_PL_PL_14_End Length=1 Units=km LineCode=33kV_Standard
New Line.L33_132KV_GIS_DAWAKI_FDR_33KV_FDR_D6_PL_PL_7 Bus1=Bus_TS_GIS_DAWAKI Bus2=Bus_F33_132KV_GIS_DAWAKI_FDR_33KV_FDR_D6_PL_PL_7_End Length=1 Units=km LineCode=33kV_Standard
New Line.L33_132KV_LOKOJA_T_S_33KV_FDR_1_KOTO_GEGU_PL_PL_15 Bus1=Bus_TS_LOKOJA Bus2=Bus_F33_132KV_LOKOJA_T_S_33KV_FDR_1_KOTO_GEGU_PL_PL_15_End Length=1 Units=km LineCode=33kV_Standard
New Line.L33_132KV_BIDA_TS_T3_PL_PL_15 Bus1=Bus_TS_BIDA Bus2=Bus_F33_132KV_BIDA_TS_T3_PL_PL_15_End Length=1 Units=km LineCode=33kV_Standard
New Line.L33_132KV_GIS_DAWAKI_FDR_33KV_FDR_D6_PL_PL_8 Bus1=Bus_TS_GIS_DAWAKI Bus2=Bus_F33_132KV_GIS_DAWAKI_FDR_33KV_FDR_D6_PL_PL_8_End Length=1 Units=km LineCode=33kV_Standard
New Line.L33_132KV_LOKOJA_T_S_33KV_FDR_1_KOTO_GEGU_PL_PL_16 Bus1=Bus_TS_LOKOJA Bus2=Bus_F33_132KV_LOKOJA_T_S_33KV_FDR_1_KOTO_GEGU_PL_PL_16_End Length=1 Units=km LineCode=33kV_Standard
New Line.L33_132KV_BIDA_TS_T3_PL_PL_16 Bus1=Bus_TS_BIDA Bus2=Bus_F33_132KV_BIDA_TS_T3_PL_PL_16_End Length=1 Units=km LineCode=33kV_Standard
New Line.L33_132KV_GIS_DAWAKI_FDR_33KV_FDR_D6_PL_PL_9 Bus1=Bus_TS_GIS_DAWAKI Bus2=Bus_F33_132KV_GIS_DAWAKI_FDR_33KV_FDR_D6_PL_PL_9_End Length=1 Units=km LineCode=33kV_Standard
New Line.L33_132KV_LOKOJA_T_S_33KV_FDR_1_KOTO_GEGU_PL_PL_17 Bus1=Bus_TS_LOKOJA Bus2=Bus_F33_132KV_LOKOJA_T_S_33KV_FDR_1_KOTO_GEGU_PL_PL_17_End Length=1 Units=km LineCode=33kV_Standard
New Line.L33_132KV_BIDA_TS_T3_PL_PL_17 Bus1=Bus_TS_BIDA Bus2=Bus_F33_132KV_BIDA_TS_T3_PL_PL_17_End Length=1 Units=km LineCode=33kV_Standard
New Line.L33_132KV_GIS_DAWAKI_FDR_33KV_FDR_D6_PL_PL_10 Bus1=Bus_TS_GIS_DAWAKI Bus2=Bus_F33_132KV_GIS_DAWAKI_FDR_33KV_FDR_D6_PL_PL_10_End Length=1 Units=km LineCode=33kV_Standard
New Line.L33_132KV_LOKOJA_T_S_33KV_FDR_1_KOTO_GEGU_PL_PL_18 Bus1=Bus_TS_LOKOJA Bus2=Bus_F33_132KV_LOKOJA_T_S_33KV_FDR_1_KOTO_GEGU_PL_PL_18_End Length=1 Units=km LineCode=33kV_Standard
New Line.L33_132KV_BIDA_TS_T3_PL_PL_18 Bus1=Bus_TS_BIDA Bus2=Bus_F33_132KV_BIDA_TS_T3_PL_PL_18_End Length=1 Units=km LineCode=33kV_Standard
New Line.L33_132KV_LOKOJA_T_S_33KV_FDR_1_KOTO_GEGU_PL_PL_19 Bus1=Bus_TS_LOKOJA Bus2=Bus_F33_132KV_LOKOJA_T_S_33KV_FDR_1_KOTO_GEGU_PL_PL_19_End Length=1 Units=km LineCode=33kV_Standard
New Line.L33_132KV_BIDA_TS_T3_PL_PL_19 Bus1=Bus_TS_BIDA Bus2=Bus_F33_132KV_BIDA_TS_T3_PL_PL_19_End Length=1 Units=km LineCode=33kV_Standard
New Line.L33_132KV_LOKOJA_T_S_33KV_FDR_1_KOTO_GEGU_PL_PL_20 Bus1=Bus_TS_LOKOJA Bus2=Bus_F33_132KV_LOKOJA_T_S_33KV_FDR_1_KOTO_GEGU_PL_PL_20_End Length=1 Units=km LineCode=33kV_Standard
New Line.L33_132KV_BIDA_TS_T3_PL_PL_20 Bus1=Bus_TS_BIDA Bus2=Bus_F33_132KV_BIDA_TS_T3_PL_PL_20_End Length=1 Units=km LineCode=33kV_Standard
New Line.L33_132KV_LOKOJA_T_S_33KV_FDR_1_KOTO_GEGU_PL_PL_21 Bus1=Bus_TS_LOKOJA Bus2=Bus_F33_132KV_LOKOJA_T_S_33KV_FDR_1_KOTO_GEGU_PL_PL_21_End Length=1 Units=km LineCode=33kV_Standard
New Line.L33_132KV_APO_TS_33KV_FDR_H7_PL_PL Bus1=Bus_TS_AT3 Bus2=Bus_F33_132KV_APO_TS_33KV_FDR_H7_PL_PL_End Length=1 Units=km LineCode=33kV_Standard
New Line.L33_132KV_SULEJA_TS_33KV_GOODA_PLUSTECH_FDR_PL_PL_2 Bus1=Bus_TS_AT6 Bus2=Bus_F33_132KV_SULEJA_TS_33KV_GOODA_PLUSTECH_FDR_PL_PL_2_End Length=1 Units=km LineCode=33kV_Standard
New Line.L33_132KV_SULEJA132KV_PL_PL_2 Bus1=Bus_TS_AT6 Bus2=Bus_F33_132KV_SULEJA132KV_PL_PL_2_End Length=1 Units=km LineCode=33kV_Standard
New Line.L33_132KV_GIS_DAWAKI_TS_33KV_FDR_D5_PL_PL Bus1=Bus_TS_GIS_DAWAKI Bus2=Bus_F33_132KV_GIS_DAWAKI_TS_33KV_FDR_D5_PL_PL_End Length=1 Units=km LineCode=33kV_Standard