opendss/dss_output/Feeders11.dss
! 11 kV feeders
New Line.L11_132KV_KATAMPE_TS_33KV_WUSE_II_FDR_B5_1A Bus1=Bus_SS_B5_LV Bus2=Bus_F11_132KV_KATAMPE_TS_33KV_WUSE_II_FDR_B5_1A_End Length=1 Units=km LineCode=11kV_Standard
New Line.L11_132KV_KATAMPE_TS_33KV_WUSE_II_FDR_B5_1B Bus1=Bus_SS_B5_LV Bus2=Bus_F11_132KV_KATAMPE_TS_33KV_WUSE_II_FDR_B5_1B_End Length=1 Units=km LineCode=11kV_Standard
New Line.L11_132KV_KATAMPE_TS_33KV_WUSE_II_FDR_B5_2A Bus1=Bus_SS_B5_LV Bus2=Bus_F11_132KV_KATAMPE_TS_33KV_WUSE_II_FDR_B5_2A_End Length=1 Units=km LineCode=11kV_Standard
New Line.L11_132KV_KATAMPE_TS_33KV_WUSE_II_FDR_B5_2B Bus1=Bus_SS_B5_LV Bus2=Bus_F11_132KV_KATAMPE_TS_33KV_WUSE_II_FDR_B5_2B_End Length=1 Units=km LineCode=11kV_Standard
New Line.L11_132KV_KATAMPE_TS_33KV_WUSE_II_FDR_B5_3A Bus1=Bus_SS_B5_LV Bus2=Bus_F11_132KV_KATAMPE_TS_33KV_WUSE_II_FDR_B5_3A_End Length=1 Units=km LineCode=11kV_Standard
New Line.L11_132KV_KATAMPE_TS_33KV_WUSE_II_FDR_B5_3B Bus1=Bus_SS_B5_LV Bus2=Bus_F11_132KV_KATAMPE_TS_33KV_WUSE_II_FDR_B5_3B_End Length=1 Units=km LineCode=11kV_Standard
New Line.L11_132KV_KATAMPE_TS_33KV_WUSE_II_FDR_B5_4A Bus1=Bus_SS_B5_LV Bus2=Bus_F11_132KV_KATAMPE_TS_33KV_WUSE_II_FDR_B5_4A_End Length=1 Units=km LineCode=11kV_Standard
New Line.L11_132KV_KATAMPE_TS_33KV_WUSE_II_FDR_B5_4B Bus1=Bus_SS_B5_LV Bus2=Bus_F11_132KV_KATAMPE_TS_33KV_WUSE_II_FDR_B5_4B_End Length=1 Units=km LineCode=11kV_Standard
New Line.L11_132KV_KATAMPE_TS_33KV_WUSE_II_FDR_B52_1A Bus1=Bus_SS_B52_LV Bus2=Bus_F11_132KV_KATAMPE_TS_33KV_WUSE_II_FDR_B52_1A_End Length=1 Units=km LineCode=11kV_Standard
New Line.L11_132KV_KATAMPE_TS_33KV_WUSE_II_FDR_B52_1B Bus1=Bus_SS_B52_LV Bus2=Bus_F11_132KV_KATAMPE_TS_33KV_WUSE_II_FDR_B52_1B_End Length=1 Units=km LineCode=11kV_Standard
New Line.L11_132KV_KATAMPE_TS_33KV_WUSE_II_FDR_B52_2A Bus1=Bus_SS_B52_LV Bus2=Bus_F11_132KV_KATAMPE_TS_33KV_WUSE_II_FDR_B52_2A_End Length=1 Units=km LineCode=11kV_Standard
New Line.L11_132KV_KATAMPE_TS_33KV_WUSE_II_FDR_B52_2B Bus1=Bus_SS_B52_LV Bus2=Bus_F11_132KV_KATAMPE_TS_33KV_WUSE_II_FDR_B52_2B_End Length=1 Units=km LineCode=11kV_Standard
New Line.L11_132KV_KATAMPE_TS_33KV_WUSE_II_FDR_B52_3A Bus1=Bus_SS_B52_LV Bus2=Bus_F11_132KV_KATAMPE_TS_33KV_WUSE_II_FDR_B52_3A_End Length=1 Units=km LineCode=11kV_Standard
New Line.L11_132KV_KATAMPE_TS_33KV_WUSE_II_FDR_B52_3B Bus1=Bus_SS_B52_LV Bus2=Bus_F11_132KV_KATAMPE_TS_33KV_WUSE_II_FDR_B52_3B_End Length=1 Units=km LineCode=11kV_Standard
New Line.L11_132KV_KATAMPE_TS_33KV_WUSE_II_FDR_B52_4A Bus1=Bus_SS_B52_LV Bus2=Bus_F11_132KV_KATAMPE_TS_33KV_WUSE_II_FDR_B52_4A_End Length=1 Units=km LineCode=11kV_Standard
New Line.L11_132KV_KATAMPE_TS_33KV_WUSE_II_FDR_B52_4B Bus1=Bus_SS_B52_LV Bus2=Bus_F11_132KV_KATAMPE_TS_33KV_WUSE_II_FDR_B52_4B_End Length=1 Units=km LineCode=11kV_Standard
New Line.L11_132KV_APO_TS_33KV_FDR_H1_G22_7LEFT Bus1=Bus_SS_G22_LV Bus2=Bus_F11_132KV_APO_TS_33KV_FDR_H1_G22_7LEFT_End Length=1 Units=km LineCode=11kV_Standard
New Line.L11_132KV_APO_TS_33KV_FDR_H11_G4_1B Bus1=Bus_SS_G4_LV Bus2=Bus_F11_132KV_APO_TS_33KV_FDR_H11_G4_1B_End Length=1 Units=km LineCode=11kV_Standard
New Line.L11_132KV_APO_TS_33KV_FDR_H11_G4_7B Bus1=Bus_SS_G4_LV Bus2=Bus_F11_132KV_APO_TS_33KV_FDR_H11_G4_7B_End Length=1 Units=km LineCode=11kV_Standard
New Line.L11_132KV_CENTRAL_AREA_TS_33KV_FDR_5_G2_5B Bus1=Bus_SS_G2_LV Bus2=Bus_F11_132KV_CENTRAL_AREA_TS_33KV_FDR_5_G2_5B_End Length=1 Units=km LineCode=11kV_Standard
New Line.L11_132KV_CENTRAL_AREA_TS_33KV_FDR_5_G42_FDL1 Bus1=Bus_SS_G42_LV Bus2=Bus_F11_132KV_CENTRAL_AREA_TS_33KV_FDR_5_G42_FDL1_End Length=1 Units=km LineCode=11kV_Standard
New Line.L11_33OKV_APIR-LAFIA_LINE_1and2_132KV_AKURBA_TS_33KV_FDR_A2_L15_FD1A Bus1=Bus_SS_L15_LV Bus2=Bus_F11_33OKV_APIR-LAFIA_LINE_1and2_132KV_AKURBA_TS_33KV_FDR_A2_L15_FD1A_End Length=1 Units=km LineCode=11kV_Standard
New Line.L11_132KV_GIS_DAWAKI_TS_33KV_FDR_D2_M42_K12 Bus1=Bus_SS_M42_LV Bus2=Bus_F11_132KV_GIS_DAWAKI_TS_33KV_FDR_D2_M42_K12_End Length=1 Units=km LineCode=11kV_Standard
New Line.L11_132KV_GIS_DAWAKI_TS_33KV_FDR_D2_M42_K14 Bus1=Bus_SS_M42_LV Bus2=Bus_F11_132KV_GIS_DAWAKI_TS_33KV_FDR_D2_M42_K14_End Length=1 Units=km LineCode=11kV_Standard
New Line.L11_132KV_GIS_DAWAKI_TS_33KV_FDR_D2_M42_K5 Bus1=Bus_SS_M42_LV Bus2=Bus_F11_132KV_GIS_DAWAKI_TS_33KV_FDR_D2_M42_K5_End Length=1 Units=km LineCode=11kV_Standard
New Line.L11_132KV_GIS_DAWAKI_TS_33KV_FDR_D2_M42_K6 Bus1=Bus_SS_M42_LV Bus2=Bus_F11_132KV_GIS_DAWAKI_TS_33KV_FDR_D2_M42_K6_End Length=1 Units=km LineCode=11kV_Standard
New Line.L11_132KV_GIS_DAWAKI_TS_33KV FDR_D2_M43_ADKAN Bus1=Bus_SS_M43_LV Bus2=Bus_F11_132KV_GIS_DAWAKI_TS_33KV FDR_D2_M43_ADKAN_End Length=1 Units=km LineCode=11kV_Standard
New Line.L11_132KV_GIS_DAWAKI_TS_33KV_FDR_D2_M43_SETRACO Bus1=Bus_SS_M43_LV Bus2=Bus_F11_132KV_GIS_DAWAKI_TS_33KV_FDR_D2_M43_SETRACO_End Length=1 Units=km LineCode=11kV_Standard
New Line.L11_132KV_KATAMPE_1_TS_33KV_GWARINPA_FDR_T1_LINE_C Bus1=Bus_SS_T1_LV Bus2=Bus_F11_132KV_KATAMPE_1_TS_33KV_GWARINPA_FDR_T1_LINE_C_End Length=1 Units=km LineCode=11kV_Standard
New Line.L11_132KV_KATAMPE_1_TS_33KV_GWARINPA_FDR_T1_LINE_E Bus1=Bus_SS_T1_LV Bus2=Bus_F11_132KV_KATAMPE_1_TS_33KV_GWARINPA_FDR_T1_LINE_E_End Length=1 Units=km LineCode=11kV_Standard
New Line.L11_132KV_KATAMPE_1_TS_33KV_GWARINPA_FDR_T1_LINE_F Bus1=Bus_SS_T1_LV Bus2=Bus_F11_132KV_KATAMPE_1_TS_33KV_GWARINPA_FDR_T1_LINE_F_End Length=1 Units=km LineCode=11kV_Standard
New Line.L11_132KV_KATAMPE_1_TS_33KV_GWARINPA_FDR_T1_LINE_H Bus1=Bus_SS_T1_LV Bus2=Bus_F11_132KV_KATAMPE_1_TS_33KV_GWARINPA_FDR_T1_LINE_H_End Length=1 Units=km LineCode=11kV_Standard
New Line.L11_132KV_APO_TS_33KV_FDR_H1_G22_1LEFT Bus1=Bus_SS_G22_LV Bus2=Bus_F11_132KV_APO_TS_33KV_FDR_H1_G22_1LEFT_End Length=1 Units=km LineCode=11kV_Standard
New Line.L11_132KV_APO_TS_33KV_FDR_H1_G22_2LEFT Bus1=Bus_SS_G22_LV Bus2=Bus_F11_132KV_APO_TS_33KV_FDR_H1_G22_2LEFT_End Length=1 Units=km LineCode=11kV_Standard
New Line.L11_132KV_APO_TS_33KV_FDR_H1_G22_4LEFT Bus1=Bus_SS_G22_LV Bus2=Bus_F11_132KV_APO_TS_33KV_FDR_H1_G22_4LEFT_End Length=1 Units=km LineCode=11kV_Standard
New Line.L11_132KV_APO_TS_33KV_FDR_H1_G22_5and8LEFT Bus1=Bus_SS_G22_LV Bus2=Bus_F11_132KV_APO_TS_33KV_FDR_H1_G22_5and8LEFT_End Length=1 Units=km LineCode=11kV_Standard
New Line.L11_132KV_APO_TS_33KV_FDR_H1_G24_FD2 Bus1=Bus_SS_G24_LV Bus2=Bus_F11_132KV_APO_TS_33KV_FDR_H1_G24_FD2_End Length=1 Units=km LineCode=11kV_Standard
New Line.L11_132KV_APO_TS_33KV_FDR_H1_G24_FD5 Bus1=Bus_SS_G24_LV Bus2=Bus_F11_132KV_APO_TS_33KV_FDR_H1_G24_FD5_End Length=1 Units=km LineCode=11kV_Standard
New Line.L11_132KV_APO_TS_33KV_FDR_H1_G24_FDR_22 Bus1=Bus_SS_G24_LV Bus2=Bus_F11_132KV_APO_TS_33KV_FDR_H1_G24_FDR_22_End Length=1 Units=km LineCode=11kV_Standard
New Line.L11_132KV_APO_TS_33KV_FDR_H2_G32_1B Bus1=Bus_SS_G32_LV Bus2=Bus_F11_132KV_APO_TS_33KV_FDR_H2_G32_1B_End Length=1 Units=km LineCode=11kV_Standard
New Line.L11_132KV_APO_TS_33KV_FDR_H2_G32_2B Bus1=Bus_SS_G32_LV Bus2=Bus_F11_132KV_APO_TS_33KV_FDR_H2_G32_2B_End Length=1 Units=km LineCode=11kV_Standard
New Line.L11_132KV_APO_TS_33KV_FDR_H2_G32_3B Bus1=Bus_SS_G32_LV Bus2=Bus_F11_132KV_APO_TS_33KV_FDR_H2_G32_3B_End Length=1 Units=km LineCode=11kV_Standard
New Line.L11_132KV_APO_TS_33KV_FDR_H2_G32_5B Bus1=Bus_SS_G32_LV Bus2=Bus_F11_132KV_APO_TS_33KV_FDR_H2_G32_5B_End Length=1 Units=km LineCode=11kV_Standard
New Line.L11_132KV_APO_TS_33KV_FDR_H2_G32_6B Bus1=Bus_SS_G32_LV Bus2=Bus_F11_132KV_APO_TS_33KV_FDR_H2_G32_6B_End Length=1 Units=km LineCode=11kV_Standard
New Line.L11_132KV_APO_TS_33KV_FDR_H2_G32_7A Bus1=Bus_SS_G32_LV Bus2=Bus_F11_132KV_APO_TS_33KV_FDR_H2_G32_7A_End Length=1 Units=km LineCode=11kV_Standard
New Line.L11_132KV_APO_TS_33KV_FDR_H2_G32_8B Bus1=Bus_SS_G32_LV Bus2=Bus_F11_132KV_APO_TS_33KV_FDR_H2_G32_8B_End Length=1 Units=km LineCode=11kV_Standard
New Line.L11_132KV_APO_TS_33KV_FDR_H2_G32_9B Bus1=Bus_SS_G32_LV Bus2=Bus_F11_132KV_APO_TS_33KV_FDR_H2_G32_9B_End Length=1 Units=km LineCode=11kV_Standard
New Line.L11_132KV_APO_TS_33KV_FDR_H11_G4_2A Bus1=Bus_SS_G4_LV Bus2=Bus_F11_132KV_APO_TS_33KV_FDR_H11_G4_2A_End Length=1 Units=km LineCode=11kV_Standard
New Line.L11_132KV_APO_TS_33KV_FDR_H11_G4_2B Bus1=Bus_SS_G4_LV Bus2=Bus_F11_132KV_APO_TS_33KV_FDR_H11_G4_2B_End Length=1 Units=km LineCode=11kV_Standard
New Line.L11_132KV_APO_TS_33KV_FDR_H11_G4_3B Bus1=Bus_SS_G4_LV Bus2=Bus_F11_132KV_APO_TS_33KV_FDR_H11_G4_3B_End Length=1 Units=km LineCode=11kV_Standard
New Line.L11_132KV_APO_TS_33KV_FDR_H11_G4_4B Bus1=Bus_SS_G4_LV Bus2=Bus_F11_132KV_APO_TS_33KV_FDR_H11_G4_4B_End Length=1 Units=km LineCode=11kV_Standard
New Line.L11_132KV_APO_TS_33KV_FDR_H21_E2_FD2 Bus1=Bus_SS_E2_LV Bus2=Bus_F11_132KV_APO_TS_33KV_FDR_H21_E2_FD2_End Length=1 Units=km LineCode=11kV_Standard
New Line.L11_132KV_APO_TS_33KV_FDR_H21_E2_FD22 Bus1=Bus_SS_E2_LV Bus2=Bus_F11_132KV_APO_TS_33KV_FDR_H21_E2_FD22_End Length=1 Units=km LineCode=11kV_Standard
New Line.L11_132KV_APO_TS_33KV_FDR_H21_E2_FD5 Bus1=Bus_SS_E2_LV Bus2=Bus_F11_132KV_APO_TS_33KV_FDR_H21_E2_FD5_End Length=1 Units=km LineCode=11kV_Standard
New Line.L11_132KV_APO_TS_33KV_FDR_H3_R4_FD3 Bus1=Bus_SS_R4_LV Bus2=Bus_F11_132KV_APO_TS_33KV_FDR_H3_R4_FD3_End Length=1 Units=km LineCode=11kV_Standard
New Line.L11_132KV_APO_TS_33KV_FDR_H3_R4_FD4 Bus1=Bus_SS_R4_LV Bus2=Bus_F11_132KV_APO_TS_33KV_FDR_H3_R4_FD4_End Length=1 Units=km LineCode=11kV_Standard
New Line.L11_132KV_APO_TS_33KV_FDR_H3_R4_FD6 Bus1=Bus_SS_R4_LV Bus2=Bus_F11_132KV_APO_TS_33KV_FDR_H3_R4_FD6_End Length=1 Units=km LineCode=11kV_Standard
New Line.L11_132KV_APO_TS_33KV_FDR_H3_R5_2B Bus1=Bus_SS_R5_LV Bus2=Bus_F11_132KV_APO_TS_33KV_FDR_H3_R5_2B_End Length=1 Units=km LineCode=11kV_Standard
New Line.L11_132KV_APO_TS_33KV_FDR_H3_R5_4B Bus1=Bus_SS_R5_LV Bus2=Bus_F11_132KV_APO_TS_33KV_FDR_H3_R5_4B_End Length=1 Units=km LineCode=11kV_Standard
New Line.L11_132KV_APO_TS_33KV_FDR_H3_R5_4A Bus1=Bus_SS_R5_LV Bus2=Bus_F11_132KV_APO_TS_33KV_FDR_H3_R5_4A_End Length=1 Units=km LineCode=11kV_Standard
New Line.L11_132KV_APO_TS_33KV_FDR_H3_R5_5B Bus1=Bus_SS_R5_LV Bus2=Bus_F11_132KV_APO_TS_33KV_FDR_H3_R5_5B_End Length=1 Units=km LineCode=11kV_Standard
New Line.L11_132KV_APO_TS_33KV_FDR_H3_R5_6A Bus1=Bus_SS_R5_LV Bus2=Bus_F11_132KV_APO_TS_33KV_FDR_H3_R5_6A_End Length=1 Units=km LineCode=11kV_Standard
New Line.L11_132KV_APO_TS_33KV_FDR_H3_R5_6B Bus1=Bus_SS_R5_LV Bus2=Bus_F11_132KV_APO_TS_33KV_FDR_H3_R5_6B_End Length=1 Units=km LineCode=11kV_Standard
New Line.L11_132KV_APO_TS_33KV_FDR_H31_S22_4A Bus1=Bus_SS_S22_LV Bus2=Bus_F11_132KV_APO_TS_33KV_FDR_H31_S22_4A_End Length=1 Units=km LineCode=11kV_Standard
New Line.L11_132KV_APO_TS_33KV_FDR_H31_S22_4B Bus1=Bus_SS_S22_LV Bus2=Bus_F11_132KV_APO_TS_33KV_FDR_H31_S22_4B_End Length=1 Units=km LineCode=11kV_Standard
New Line.L11_132KV_APO_TS_33KV_FDR_H31_S23_1A Bus1=Bus_SS_S23_LV Bus2=Bus_F11_132KV_APO_TS_33KV_FDR_H31_S23_1A_End Length=1 Units=km LineCode=11kV_Standard
New Line.L11_132KV_APO_TS_33KV_FDR_H31_S23_5A Bus1=Bus_SS_S23_LV Bus2=Bus_F11_132KV_APO_TS_33KV_FDR_H31_S23_5A_End Length=1 Units=km LineCode=11kV_Standard
New Line.L11_132KV_APO_TS_33KV_FDR_H31_S23_2B Bus1=Bus_SS_S23_LV Bus2=Bus_F11_132KV_APO_TS_33KV_FDR_H31_S23_2B_End Length=1 Units=km LineCode=11kV_Standard
New Line.L11_132KV_APO_TS_33KV_FDR_H31_S23_3B Bus1=Bus_SS_S23_LV Bus2=Bus_F11_132KV_APO_TS_33KV_FDR_H31_S23_3B_End Length=1 Units=km LineCode=11kV_Standard
New Line.L11_132KV_APO_TS_33KV_FDR_H31_S23_4A Bus1=Bus_SS_S23_LV Bus2=Bus_F11_132KV_APO_TS_33KV_FDR_H31_S23_4A_End Length=1 Units=km LineCode=11kV_Standard
New Line.L11_132KV_APO_TS_33KV_FDR_H31_S24_FD1 Bus1=Bus_SS_S24_LV Bus2=Bus_F11_132KV_APO_TS_33KV_FDR_H31_S24_FD1_End Length=1 Units=km LineCode=11kV_Standard
New Line.L11_132KV_APO_TS_33KV_FDR_H31_S24_FD2 Bus1=Bus_SS_S24_LV Bus2=Bus_F11_132KV_APO_TS_33KV_FDR_H31_S24_FD2_End Length=1 Units=km LineCode=11kV_Standard
New Line.L11_132KV_APO_TS_33KV_FDR_H37_S26_BEHIND_TRANSMISSION Bus1=Bus_SS_S26_LV Bus2=Bus_F11_132KV_APO_TS_33KV_FDR_H37_S26_BEHIND_TRANSMISSION_End Length=1 Units=km LineCode=11kV_Standard
New Line.L11_132KV_APO_TS_33KV_FDR_H37_S26_K10 Bus1=Bus_SS_S26_LV Bus2=Bus_F11_132KV_APO_TS_33KV_FDR_H37_S26_K10_End Length=1 Units=km LineCode=11kV_Standard
New Line.L11_132KV_APO_TS_33KV_FDR_H37_S26_TRADEMORE_FD Bus1=Bus_SS_S26_LV Bus2=Bus_F11_132KV_APO_TS_33KV_FDR_H37_S26_TRADEMORE_FD_End Length=1 Units=km LineCode=11kV_Standard
New Line.L11_132KV_APO_TS_33KV_FDR_H5_R2_FD14 Bus1=Bus_SS_R2_LV Bus2=Bus_F11_132KV_APO_TS_33KV_FDR_H5_R2_FD14_End Length=1 Units=km LineCode=11kV_Standard
New Line.L11_132KV_APO_TS_33KV_FDR_H5_R2_FD17 Bus1=Bus_SS_R2_LV Bus2=Bus_F11_132KV_APO_TS_33KV_FDR_H5_R2_FD17_End Length=1 Units=km LineCode=11kV_Standard
New Line.L11_132KV_APO_TS_33KV_FDR_H5_R2_FD7 Bus1=Bus_SS_R2_LV Bus2=Bus_F11_132KV_APO_TS_33KV_FDR_H5_R2_FD7_End Length=1 Units=km LineCode=11kV_Standard
New Line.L11_132KV_APO_TS_33KV_FDR_H5_R2_FD9 Bus1=Bus_SS_R2_LV Bus2=Bus_F11_132KV_APO_TS_33KV_FDR_H5_R2_FD9_End Length=1 Units=km LineCode=11kV_Standard
New Line.L11_132KV_APO_TS_33KV_FDR_H5_R3_1A Bus1=Bus_SS_R3_LV Bus2=Bus_F11_132KV_APO_TS_33KV_FDR_H5_R3_1A_End Length=1 Units=km LineCode=11kV_Standard
New Line.L11_132KV_APO_TS_33KV_FDR_H3_R3_3A Bus1=Bus_SS_R3_LV Bus2=Bus_F11_132KV_APO_TS_33KV_FDR_H3_R3_3A_End Length=1 Units=km LineCode=11kV_Standard
New Line.L11_132KV_APO_TS_33KV_FDR_H3_R3_4A Bus1=Bus_SS_R3_LV Bus2=Bus_F11_132KV_APO_TS_33KV_FDR_H3_R3_4A_End Length=1 Units=km LineCode=11kV_Standard
New Line.L11_132KV_APO_TS_33KV_FDR_H5_R3_6B Bus1=Bus_SS_R3_LV Bus2=Bus_F11_132KV_APO_TS_33KV_FDR_H5_R3_6B_End Length=1 Units=km LineCode=11kV_Standard
New Line.L11_132KV_APO_TS_33KV_FDR_H5_R6_1B Bus1=Bus_SS_R6_LV Bus2=Bus_F11_132KV_APO_TS_33KV_FDR_H5_R6_1B_End Length=1 Units=km LineCode=11kV_Standard
New Line.L11_132KV_APO_TS_33KV_FDR_H5_R6_2B Bus1=Bus_SS_R6_LV Bus2=Bus_F11_132KV_APO_TS_33KV_FDR_H5_R6_2B_End Length=1 Units=km LineCode=11kV_Standard
New Line.L11_132KV_APO_TS_33KV_FDR_H5_R7_3A Bus1=Bus_SS_R7_LV Bus2=Bus_F11_132KV_APO_TS_33KV_FDR_H5_R7_3A_End Length=1 Units=km LineCode=11kV_Standard
New Line.L11_132KV_APO_TS_33KV_FDR_H5_R7_4A Bus1=Bus_SS_R7_LV Bus2=Bus_F11_132KV_APO_TS_33KV_FDR_H5_R7_4A_End Length=1 Units=km LineCode=11kV_Standard
New Line.L11_132KV_APO_TS_33KV_FDR_H5_R7_5B Bus1=Bus_SS_R7_LV Bus2=Bus_F11_132KV_APO_TS_33KV_FDR_H5_R7_5B_End Length=1 Units=km LineCode=11kV_Standard
New Line.L11_132KV_APO_TS_33KV_FDR_H5_R7_6A Bus1=Bus_SS_R7_LV Bus2=Bus_F11_132KV_APO_TS_33KV_FDR_H5_R7_6A_End Length=1 Units=km LineCode=11kV_Standard
New Line.L11_132KV_KUBWA_TS_33KV_BWARI_FDR_K3_FD1 Bus1=Bus_SS_K3_LV Bus2=Bus_F11_132KV_KUBWA_TS_33KV_BWARI_FDR_K3_FD1_End Length=1 Units=km LineCode=11kV_Standard
New Line.L11_132KV_KUBWA_TS_33KV_BWARI_FDR_K3_FD2 Bus1=Bus_SS_K3_LV Bus2=Bus_F11_132KV_KUBWA_TS_33KV_BWARI_FDR_K3_FD2_End Length=1 Units=km LineCode=11kV_Standard
New Line.L11_132KV_KUBWA_TS_33KV_BWARI_FDR_K3_FD3 Bus1=Bus_SS_K3_LV Bus2=Bus_F11_132KV_KUBWA_TS_33KV_BWARI_FDR_K3_FD3_End Length=1 Units=km LineCode=11kV_Standard
New Line.L11_132KV_KUBWA_TS_33KV_DAM_FDR_K32_FD2 Bus1=Bus_SS_K32_LV Bus2=Bus_F11_132KV_KUBWA_TS_33KV_DAM_FDR_K32_FD2_End Length=1 Units=km LineCode=11kV_Standard
New Line.L11_DAWAKI_FDR_D1_M44_FD1 Bus1=Bus_SS_M44_LV Bus2=Bus_F11_DAWAKI_FDR_D1_M44_FD1_End Length=1 Units=km LineCode=11kV_Standard
New Line.L11_DAWAKI_FDR_D1_M44_FD2 Bus1=Bus_SS_M44_LV Bus2=Bus_F11_DAWAKI_FDR_D1_M44_FD2_End Length=1 Units=km LineCode=11kV_Standard
New Line.L11_132KV_KUBWA_TS_33KV_DAWAKI_FDR_T2_FD2 Bus1=Bus_SS_T2_LV Bus2=Bus_F11_132KV_KUBWA_TS_33KV_DAWAKI_FDR_T2_FD2_End Length=1 Units=km LineCode=11kV_Standard
New Line.L11_132KV_KUBWA_TS_33KV_DEIDEI_FDR_MOPOL_FD1 Bus1=Bus_SS_MOPOL_LV Bus2=Bus_F11_132KV_KUBWA_TS_33KV_DEIDEI_FDR_MOPOL_FD1_End Length=1 Units=km LineCode=11kV_Standard
New Line.L11_132KV_KUBWA_TS_33KV_DEIDEI_FDR_MOPOL_FD2 Bus1=Bus_SS_MOPOL_LV Bus2=Bus_F11_132KV_KUBWA_TS_33KV_DEIDEI_FDR_MOPOL_FD2_End Length=1 Units=km LineCode=11kV_Standard
New Line.L11_132KV_KUBWA_TS_33KV_KUBWA_FDR_K2_FD1 Bus1=Bus_SS_K2_LV Bus2=Bus_F11_132KV_KUBWA_TS_33KV_KUBWA_FDR_K2_FD1_End Length=1 Units=km LineCode=11kV_Standard
New Line.L11_132KV_KUBWA_TS_33KV_KUBWA_FDR_K2_FD2 Bus1=Bus_SS_K2_LV Bus2=Bus_F11_132KV_KUBWA_TS_33KV_KUBWA_FDR_K2_FD2_End Length=1 Units=km LineCode=11kV_Standard
New Line.L11_132KV_KUBWA_TS_33KV_KUBWA_FDR_K2_FD3 Bus1=Bus_SS_K2_LV Bus2=Bus_F11_132KV_KUBWA_TS_33KV_KUBWA_FDR_K2_FD3_End Length=1 Units=km LineCode=11kV_Standard
New Line.L11_132KV_KUBWA_TS_33KV_KUBWA_FDR_K2_FD4 Bus1=Bus_SS_K2_LV Bus2=Bus_F11_132KV_KUBWA_TS_33KV_KUBWA_FDR_K2_FD4_End Length=1 Units=km LineCode=11kV_Standard
New Line.L11_132KV_KUBWA_TS_33KV_NIPP_FDR_NIPP_FDN1 Bus1=Bus_SS_NIPP_LV Bus2=Bus_F11_132KV_KUBWA_TS_33KV_NIPP_FDR_NIPP_FDN1_End Length=1 Units=km LineCode=11kV_Standard
New Line.L11_132KV_KUBWA_TS_33KV_NIPP_FDR_NIPP_FDN2 Bus1=Bus_SS_NIPP_LV Bus2=Bus_F11_132KV_KUBWA_TS_33KV_NIPP_FDR_NIPP_FDN2_End Length=1 Units=km LineCode=11kV_Standard
New Line.L11_132KV_CENTRAL_AREA_TS_33KV_FDR_4_B33_3B Bus1=Bus_SS_B33TR2_LV Bus2=Bus_F11_132KV_CENTRAL_AREA_TS_33KV_FDR_4_B33_3B_End Length=1 Units=km LineCode=11kV_Standard
New Line.L11_132KV_CENTRAL_AREA_TS_33KV_FDR_4_B33_6A Bus1=Bus_SS_B33TR1_LV Bus2=Bus_F11_132KV_CENTRAL_AREA_TS_33KV_FDR_4_B33_6A_End Length=1 Units=km LineCode=11kV_Standard
New Line.L11_132KV_CENTRAL_AREA_TS_33KV_FDR_4_B33_7B Bus1=Bus_SS_B33TR1_LV Bus2=Bus_F11_132KV_CENTRAL_AREA_TS_33KV_FDR_4_B33_7B_End Length=1 Units=km LineCode=11kV_Standard
New Line.L11_132KV_CENTRAL_AREA_TS_33KV_FDR_3_B32_FD1 Bus1=Bus_SS_B32_LV Bus2=Bus_F11_132KV_CENTRAL_AREA_TS_33KV_FDR_3_B32_FD1_End Length=1 Units=km LineCode=11kV_Standard
New Line.L11_132KV_CENTRAL_AREA_TS_33KV_FDR_3_B32_FD2 Bus1=Bus_SS_B32_LV Bus2=Bus_F11_132KV_CENTRAL_AREA_TS_33KV_FDR_3_B32_FD2_End Length=1 Units=km LineCode=11kV_Standard
New Line.L11_132KV_CENTRAL_AREA_TS_33KV_FDR_3_B32_FD3 Bus1=Bus_SS_B32_LV Bus2=Bus_F11_132KV_CENTRAL_AREA_TS_33KV_FDR_3_B32_FD3_End Length=1 Units=km LineCode=11kV_Standard
New Line.L11_132KV_CENTRAL_AREA_TS_33KV_FDR_3_B32_FD4 Bus1=Bus_SS_B32_LV Bus2=Bus_F11_132KV_CENTRAL_AREA_TS_33KV_FDR_3_B32_FD4_End Length=1 Units=km LineCode=11kV_Standard
New Line.L11_132KV_CENTRAL_AREA_TS_33KV_FDR_3_B32_FD5 Bus1=Bus_SS_B32_LV Bus2=Bus_F11_132KV_CENTRAL_AREA_TS_33KV_FDR_3_B32_FD5_End Length=1 Units=km LineCode=11kV_Standard
New Line.L11_132KV_CENTRAL_AREA_TS_33KV_FDR_3_B32_FD6 Bus1=Bus_SS_B32_LV Bus2=Bus_F11_132KV_CENTRAL_AREA_TS_33KV_FDR_3_B32_FD6_End Length=1 Units=km LineCode=11kV_Standard
New Line.L11_132KV_CENTRAL_AREA_TS_33KV_FDR_5_G2_7A Bus1=Bus_SS_G2_LV Bus2=Bus_F11_132KV_CENTRAL_AREA_TS_33KV_FDR_5_G2_7A_End Length=1 Units=km LineCode=11kV_Standard
New Line.L11_132KV_CENTRAL_AREA_TS_33KV_FDR_6_C2_2B Bus1=Bus_SS_C2_LV Bus2=Bus_F11_132KV_CENTRAL_AREA_TS_33KV_FDR_6_C2_2B_End Length=1 Units=km LineCode=11kV_Standard
New Line.L11_132KV_CENTRAL_AREA_TS_33KV_FDR_6_C2_4B Bus1=Bus_SS_C2_LV Bus2=Bus_F11_132KV_CENTRAL_AREA_TS_33KV_FDR_6_C2_4B_End Length=1 Units=km LineCode=11kV_Standard
New Line.L11_132KV_CENTRAL_AREA_TS_33KV_FDR_6_C2_6A Bus1=Bus_SS_C2_LV Bus2=Bus_F11_132KV_CENTRAL_AREA_TS_33KV_FDR_6_C2_6A_End Length=1 Units=km LineCode=11kV_Standard
New Line.L11_132KV_CENTRAL_AREA_TS_33KV_FDR_6_C2_7A Bus1=Bus_SS_C2_LV Bus2=Bus_F11_132KV_CENTRAL_AREA_TS_33KV_FDR_6_C2_7A_End Length=1 Units=km LineCode=11kV_Standard
New Line.L11_132KV_CENTRAL_AREA_TS_33KV_FDR_6_C2_8A Bus1=Bus_SS_C2_LV Bus2=Bus_F11_132KV_CENTRAL_AREA_TS_33KV_FDR_6_C2_8A_End Length=1 Units=km LineCode=11kV_Standard
New Line.L11_132KV_CENTRAL_AREA_TS_33KV_FDR_6_C4_3A Bus1=Bus_SS_C4_LV Bus2=Bus_F11_132KV_CENTRAL_AREA_TS_33KV_FDR_6_C4_3A_End Length=1 Units=km LineCode=11kV_Standard
New Line.L11_132KV_CENTRAL_AREA_TS_33KV_FDR_6_C4_5A Bus1=Bus_SS_C4_LV Bus2=Bus_F11_132KV_CENTRAL_AREA_TS_33KV_FDR_6_C4_5A_End Length=1 Units=km LineCode=11kV_Standard
New Line.L11_132KV_CENTRAL_AREA_TS_33KV_FDR_8_M2_1B Bus1=Bus_SS_M2_LV Bus2=Bus_F11_132KV_CENTRAL_AREA_TS_33KV_FDR_8_M2_1B_End Length=1 Units=km LineCode=11kV_Standard
New Line.L11_132KV_CENTRAL_AREA_TS_33KV_FDR_8_M2_2A Bus1=Bus_SS_M2_LV Bus2=Bus_F11_132KV_CENTRAL_AREA_TS_33KV_FDR_8_M2_2A_End Length=1 Units=km LineCode=11kV_Standard
New Line.L11_132KV_CENTRAL_AREA_TS_33KV_FDR_8_M2_2B Bus1=Bus_SS_M2_LV Bus2=Bus_F11_132KV_CENTRAL_AREA_TS_33KV_FDR_8_M2_2B_End Length=1 Units=km LineCode=11kV_Standard
New Line.L11_132KV_CENTRAL_AREA_TS_33KV_FDR_8_M2_3A Bus1=Bus_SS_M2_LV Bus2=Bus_F11_132KV_CENTRAL_AREA_TS_33KV_FDR_8_M2_3A_End Length=1 Units=km LineCode=11kV_Standard
New Line.L11_132KV_CENTRAL_AREA_TS_33KV_FDR_8_M2_3B Bus1=Bus_SS_M2_LV Bus2=Bus_F11_132KV_CENTRAL_AREA_TS_33KV_FDR_8_M2_3B_End Length=1 Units=km LineCode=11kV_Standard
New Line.L11_132KV_CENTRAL_AREA_TS_33KV_FDR_8_M2_5A Bus1=Bus_SS_M2_LV Bus2=Bus_F11_132KV_CENTRAL_AREA_TS_33KV_FDR_8_M2_5A_End Length=1 Units=km LineCode=11kV_Standard
New Line.L11_132KV_CENTRAL_AREA_TS_33KV_FDR_8_M2_5B Bus1=Bus_SS_M2_LV Bus2=Bus_F11_132KV_CENTRAL_AREA_TS_33KV_FDR_8_M2_5B_End Length=1 Units=km LineCode=11kV_Standard
New Line.L11_132KV_CENTRAL_AREA_TS_33KV_FDR_8_M2_6A Bus1=Bus_SS_M2_LV Bus2=Bus_F11_132KV_CENTRAL_AREA_TS_33KV_FDR_8_M2_6A_End Length=1 Units=km LineCode=11kV_Standard
New Line.L11_132KV_CENTRAL_AREA_TS_33KV_FDR_8_M2_6B Bus1=Bus_SS_M2_LV Bus2=Bus_F11_132KV_CENTRAL_AREA_TS_33KV_FDR_8_M2_6B_End Length=1 Units=km LineCode=11kV_Standard
New Line.L11_132KV_CENTRAL_AREA_TS_33KV_FDR_8_M2_7A Bus1=Bus_SS_M2_LV Bus2=Bus_F11_132KV_CENTRAL_AREA_TS_33KV_FDR_8_M2_7A_End Length=1 Units=km LineCode=11kV_Standard
New Line.L11_132KV_CENTRAL_AREA_TS_33KV_FDR_2_B33_1B Bus1=Bus_SS_B33TR1_LV Bus2=Bus_F11_132KV_CENTRAL_AREA_TS_33KV_FDR_2_B33_1B_End Length=1 Units=km LineCode=11kV_Standard
New Line.L11_132KV_CENTRAL_AREA_TS_33KV_FDR_2_B33_4B Bus1=Bus_SS_B33TR1_LV Bus2=Bus_F11_132KV_CENTRAL_AREA_TS_33KV_FDR_2_B33_4B_End Length=1 Units=km LineCode=11kV_Standard
New Line.L11_132KV_CENTRAL_AREA_TS_33KV_FDR_2_B33_6B Bus1=Bus_SS_B33TR1_LV Bus2=Bus_F11_132KV_CENTRAL_AREA_TS_33KV_FDR_2_B33_6B_End Length=1 Units=km LineCode=11kV_Standard
New Line.L11_132KV_CENTRAL_AREA_TS_33KV_FDR_2_B33_9B Bus1=Bus_SS_B33TR1_LV Bus2=Bus_F11_132KV_CENTRAL_AREA_TS_33KV_FDR_2_B33_9B_End Length=1 Units=km LineCode=11kV_Standard
New Line.L11_132KV_SULEJA_TS_33KV_FIELDBASE_FIELDBASE_SULEIMAN_BARAU Bus1=Bus_SS_FIELDBASE_LV Bus2=Bus_F11_132KV_SULEJA_TS_33KV_FIELDBASE_FIELDBASE_SULEIMAN_BARAU_End Length=1 Units=km LineCode=11kV_Standard
New Line.L11_132KV_SULEJA_TS_33KV_JERE_FDR_DIKKO_NASARA_FDR Bus1=Bus_SS_SABON_WUSE_LV Bus2=Bus_F11_132KV_SULEJA_TS_33KV_JERE_FDR_DIKKO_NASARA_FDR_End Length=1 Units=km LineCode=11kV_Standard
New Line.L11_132KV_SULEJA_TS_33KV_JIWA_FDR_JIWA_FD2_JIWA Bus1=Bus_SS_F2_LV Bus2=Bus_F11_132KV_SULEJA_TS_33KV_JIWA_FDR_JIWA_FD2_JIWA_End Length=1 Units=km LineCode=11kV_Standard
New Line.L11_132KV_SULEJA_TS_33KV_JIWA_FDR_JIWA_FD1_DEI-DEI Bus1=Bus_SS_F2_LV Bus2=Bus_F11_132KV_SULEJA_TS_33KV_JIWA_FDR_JIWA_FD1_DEI-DEI_End Length=1 Units=km LineCode=11kV_Standard
New Line.L11_132KV_SULEJA_TS_33KV_JIWA_FDR_JIWA_FD3_GWAGWA Bus1=Bus_SS_F2_LV Bus2=Bus_F11_132KV_SULEJA_TS_33KV_JIWA_FDR_JIWA_FD3_GWAGWA_End Length=1 Units=km LineCode=11kV_Standard
New Line.L11_132KV_SULEJA_TS_33KV_SULEJA_FDR_S3_HASSANDALATU Bus1=Bus_SS_S3_KANTOMA_LV Bus2=Bus_F11_132KV_SULEJA_TS_33KV_SULEJA_FDR_S3_HASSANDALATU_End Length=1 Units=km LineCode=11kV_Standard
New Line.L11_132KV_SULEJA_TS_33KV_SULEJA_FDR_S3_GWAZUNU_CHACHU Bus1=Bus_SS_S3_KANTOMA_LV Bus2=Bus_F11_132KV_SULEJA_TS_33KV_SULEJA_FDR_S3_GWAZUNU_CHACHU_End Length=1 Units=km LineCode=11kV_Standard
New Line.L11_132KV_SULEJA_TS_33KV_SULEJA_FDR_S3_RAFINSENYI Bus1=Bus_SS_S3_KANTOMA_LV Bus2=Bus_F11_132KV_SULEJA_TS_33KV_SULEJA_FDR_S3_RAFINSENYI_End Length=1 Units=km LineCode=11kV_Standard
New Line.L11_132KV_KARU_TS_33KV_FDR_K1_A22_FD1 Bus1=Bus_SS_A22_LV Bus2=Bus_F11_132KV_KARU_TS_33KV_FDR_K1_A22_FD1_End Length=1 Units=km LineCode=11kV_Standard
New Line.L11_132KV_KARU_TS_33KV_FDR_K1_A22_FD2 Bus1=Bus_SS_A22_LV Bus2=Bus_F11_132KV_KARU_TS_33KV_FDR_K1_A22_FD2_End Length=1 Units=km LineCode=11kV_Standard
New Line.L11_132KV_KARU_TS_33KV_FDR_K1_A22_FD4 Bus1=Bus_SS_A22_LV Bus2=Bus_F11_132KV_KARU_TS_33KV_FDR_K1_A22_FD4_End Length=1 Units=km LineCode=11kV_Standard
New Line.L11_132KV_KARU_TS_33KV_FDR_K1_A22_FD3 Bus1=Bus_SS_A22_LV Bus2=Bus_F11_132KV_KARU_TS_33KV_FDR_K1_A22_FD3_End Length=1 Units=km LineCode=11kV_Standard
New Line.L11_132KV_KARU_TS_33KV_FDR_K1_A22_FD5 Bus1=Bus_SS_A22_LV Bus2=Bus_F11_132KV_KARU_TS_33KV_FDR_K1_A22_FD5_End Length=1 Units=km LineCode=11kV_Standard
New Line.L11_132KV_KARU_TS_33KV_FDR_K4_A23_FD2 Bus1=Bus_SS_A23_LV Bus2=Bus_F11_132KV_KARU_TS_33KV_FDR_K4_A23_FD2_End Length=1 Units=km LineCode=11kV_Standard
New Line.L11_132KV_KARU_TS_33KV_FDR_K4_A23_FD8 Bus1=Bus_SS_A23_LV Bus2=Bus_F11_132KV_KARU_TS_33KV_FDR_K4_A23_FD8_End Length=1 Units=km LineCode=11kV_Standard
New Line.L11_132KV_KARU_TS_33KV_FDR_K4_A23_FD9 Bus1=Bus_SS_A23_LV Bus2=Bus_F11_132KV_KARU_TS_33KV_FDR_K4_A23_FD9_End Length=1 Units=km LineCode=11kV_Standard
New Line.L11_132KV_KARU_TS_33KV_FDR_K4_J22_FD1 Bus1=Bus_SS_J22_LV Bus2=Bus_F11_132KV_KARU_TS_33KV_FDR_K4_J22_FD1_End Length=1 Units=km LineCode=11kV_Standard
New Line.L11_132KV_KARU_TS_33KV_FDR_K4_J22_FD2 Bus1=Bus_SS_J22_LV Bus2=Bus_F11_132KV_KARU_TS_33KV_FDR_K4_J22_FD2_End Length=1 Units=km LineCode=11kV_Standard
New Line.L11_132KV_KARU_TS_33KV_FDR_K4_J22_FD3 Bus1=Bus_SS_J22_LV Bus2=Bus_F11_132KV_KARU_TS_33KV_FDR_K4_J22_FD3_End Length=1 Units=km LineCode=11kV_Standard
New Line.L11_132KV_KARU_TS_33KV_FDR_K4_J22_FD4 Bus1=Bus_SS_J22_LV Bus2=Bus_F11_132KV_KARU_TS_33KV_FDR_K4_J22_FD4_End Length=1 Units=km LineCode=11kV_Standard
New Line.L11_132KV_KARU_TS_33KV_FDR_K5_J32_FD1 Bus1=Bus_SS_J32_LV Bus2=Bus_F11_132KV_KARU_TS_33KV_FDR_K5_J32_FD1_End Length=1 Units=km LineCode=11kV_Standard
New Line.L11_132KV_KARU_TS_33KV_FDR_K5_J32_FD2 Bus1=Bus_SS_J32_LV Bus2=Bus_F11_132KV_KARU_TS_33KV_FDR_K5_J32_FD2_End Length=1 Units=km LineCode=11kV_Standard
New Line.L11_132KV_KARU_TS_33KV_FDR_K5_J32_FD7 Bus1=Bus_SS_J32_LV Bus2=Bus_F11_132KV_KARU_TS_33KV_FDR_K5_J32_FD7_End Length=1 Units=km LineCode=11kV_Standard
New Line.L11_132KV_KARU_TS_33KV_FDR_K5_J32_FD8 Bus1=Bus_SS_J32_LV Bus2=Bus_F11_132KV_KARU_TS_33KV_FDR_K5_J32_FD8_End Length=1 Units=km LineCode=11kV_Standard
New Line.L11_132KV_BIDA_TS_T4_BIDA_GRA_FDR Bus1=Bus_SS_ID0_LV Bus2=Bus_F11_132KV_BIDA_TS_T4_BIDA_GRA_FDR_End Length=1 Units=km LineCode=11kV_Standard
New Line.L11_132KV_GWAGWALADA_TS_33KV_FDR_L35_L3_FD2 Bus1=Bus_SS_L3_LV Bus2=Bus_F11_132KV_GWAGWALADA_TS_33KV_FDR_L35_L3_FD2_End Length=1 Units=km LineCode=11kV_Standard
New Line.L11_132KV_GWAGWALADA_TS_33KV_FDR_L35_L4_FD2 Bus1=Bus_SS_L4_LV Bus2=Bus_F11_132KV_GWAGWALADA_TS_33KV_FDR_L35_L4_FD2_End Length=1 Units=km LineCode=11kV_Standard
New Line.L11_132KV_GWAGWALADA_TS_33KV_FDR_L36_L2_FD1 Bus1=Bus_SS_L2_LV Bus2=Bus_F11_132KV_GWAGWALADA_TS_33KV_FDR_L36_L2_FD1_End Length=1 Units=km LineCode=11kV_Standard
New Line.L11_132KV_GWAGWALADA_TS_33KV_FDR_L36_L2_FD2 Bus1=Bus_SS_L2_LV Bus2=Bus_F11_132KV_GWAGWALADA_TS_33KV_FDR_L36_L2_FD2_End Length=1 Units=km LineCode=11kV_Standard
New Line.L11_132KV_GWAGWALADA_TS_33KV_FDR_L36_L2_FD3 Bus1=Bus_SS_L2_LV Bus2=Bus_F11_132KV_GWAGWALADA_TS_33KV_FDR_L36_L2_FD3_End Length=1 Units=km LineCode=11kV_Standard
New Line.L11_132KV_GWAGWALADA_TS_33KV_FDR_L36_L2_FD4 Bus1=Bus_SS_L2_LV Bus2=Bus_F11_132KV_GWAGWALADA_TS_33KV_FDR_L36_L2_FD4_End Length=1 Units=km LineCode=11kV_Standard
New Line.L11_132KV_GWAGWALADA_TS_33KV_FDR_L31_L5_FD1 Bus1=Bus_SS_L5_LV Bus2=Bus_F11_132KV_GWAGWALADA_TS_33KV_FDR_L31_L5_FD1_End Length=1 Units=km LineCode=11kV_Standard
New Line.L11_132KV_GWAGWALADA_TS_33KV_FDR_L31_L5_FD2 Bus1=Bus_SS_L5_LV Bus2=Bus_F11_132KV_GWAGWALADA_TS_33KV_FDR_L31_L5_FD2_End Length=1 Units=km LineCode=11kV_Standard
New Line.L11_132KV_KUKWABA_TS_33KV_FDR_L34_B6_2A Bus1=Bus_SS_B6_LV Bus2=Bus_F11_132KV_KUKWABA_TS_33KV_FDR_L34_B6_2A_End Length=1 Units=km LineCode=11kV_Standard
New Line.L11_132KV_KUKWABA_TS_33KV_FDR_L34_B6_3A Bus1=Bus_SS_B6_LV Bus2=Bus_F11_132KV_KUKWABA_TS_33KV_FDR_L34_B6_3A_End Length=1 Units=km LineCode=11kV_Standard
New Line.L11_132KV_KUKWABA_TS_33KV_FDR_L34_B6_4B Bus1=Bus_SS_B6_LV Bus2=Bus_F11_132KV_KUKWABA_TS_33KV_FDR_L34_B6_4B_End Length=1 Units=km LineCode=11kV_Standard
New Line.L11_132KV_KUKWABA_TS_33KV_FDR_L34_B6_5B Bus1=Bus_SS_B6_LV Bus2=Bus_F11_132KV_KUKWABA_TS_33KV_FDR_L34_B6_5B_End Length=1 Units=km LineCode=11kV_Standard
New Line.L11_132KV_KUKWABA_TS_33KV_FDR_L34_B6_6A Bus1=Bus_SS_B6_LV Bus2=Bus_F11_132KV_KUKWABA_TS_33KV_FDR_L34_B6_6A_End Length=1 Units=km LineCode=11kV_Standard
New Line.L11_132KV_KUKWABA_TS_33KV_FDR_L34_B6_6B Bus1=Bus_SS_B6_LV Bus2=Bus_F11_132KV_KUKWABA_TS_33KV_FDR_L34_B6_6B_End Length=1 Units=km LineCode=11kV_Standard
New Line.L11_132KV_KUKWABA_TS_33KV_FDR_L34_WUYE1_10A Bus1=Bus_SS_WUYE1_LV Bus2=Bus_F11_132KV_KUKWABA_TS_33KV_FDR_L34_WUYE1_10A_End Length=1 Units=km LineCode=11kV_Standard
New Line.L11_132KV_KUKWABA_TS_33KV_FDR_L34_WUYE1_4B Bus1=Bus_SS_WUYE1_LV Bus2=Bus_F11_132KV_KUKWABA_TS_33KV_FDR_L34_WUYE1_4B_End Length=1 Units=km LineCode=11kV_Standard
New Line.L11_132KV_KUKWABA_TS_33KV_FDR_L34_WUYE1_6B Bus1=Bus_SS_WUYE1_LV Bus2=Bus_F11_132KV_KUKWABA_TS_33KV_FDR_L34_WUYE1_6B_End Length=1 Units=km LineCode=11kV_Standard
New Line.L11_132KV_KUKWABA_TS_33KV_FDR_L34_WUYE2_6A Bus1=Bus_SS_WUYE2_LV Bus2=Bus_F11_132KV_KUKWABA_TS_33KV_FDR_L34_WUYE2_6A_End Length=1 Units=km LineCode=11kV_Standard
New Line.L11_132KV_KUKWABA_TS_33KV_FDR_L34_WUYE2_7A Bus1=Bus_SS_WUYE2_LV Bus2=Bus_F11_132KV_KUKWABA_TS_33KV_FDR_L34_WUYE2_7A_End Length=1 Units=km LineCode=11kV_Standard
New Line.L11_132KV_KUKWABA_TS_33KV_FDR_L34_WUYE2_8A Bus1=Bus_SS_WUYE2_LV Bus2=Bus_F11_132KV_KUKWABA_TS_33KV_FDR_L34_WUYE2_8A_End Length=1 Units=km LineCode=11kV_Standard
New Line.L11_132KV_MINNA_TS_33KV_POWER_HOUSE_FDR_POWERHOUSE_MAITUMBI Bus1=Bus_SS_POWERHOUSE_LV Bus2=Bus_F11_132KV_MINNA_TS_33KV_POWER_HOUSE_FDR_POWERHOUSE_MAITUMBI_End Length=1 Units=km LineCode=11kV_Standard
New Line.L11_132KV_MINNA_TS_T4_TS_CHANCHAGA Bus1=Bus_SS_ID0_LV Bus2=Bus_F11_132KV_MINNA_TS_T4_TS_CHANCHAGA_End Length=1 Units=km LineCode=11kV_Standard
New Line.L11_132KV_MINNA_TS_T4_TS_SHIRORO Bus1=Bus_SS_ID0_LV Bus2=Bus_F11_132KV_MINNA_TS_T4_TS_SHIRORO_End Length=1 Units=km LineCode=11kV_Standard
New Line.L11_33OKV_APIR-LAFIA_LINE_1and2_132KV_AKURBA_TS_33KV_FDR_A2_L15_FD1B Bus1=Bus_SS_L15_LV Bus2=Bus_F11_33OKV_APIR-LAFIA_LINE_1and2_132KV_AKURBA_TS_33KV_FDR_A2_L15_FD1B_End Length=1 Units=km LineCode=11kV_Standard
New Line.L11_33OKV_APIR-LAFIA_LINE_1and2_132KV_AKURBA_TS_33KV_FDR_A2_L16_FD1C Bus1=Bus_SS_L16_LV Bus2=Bus_F11_33OKV_APIR-LAFIA_LINE_1and2_132KV_AKURBA_TS_33KV_FDR_A2_L16_FD1C_End Length=1 Units=km LineCode=11kV_Standard
New Line.L11_33OKV_APIR-LAFIA_LINE_1and2_132KV_AKURBA_TS_33KV_FDR_A2_L14_FD2 Bus1=Bus_SS_L14_LV Bus2=Bus_F11_33OKV_APIR-LAFIA_LINE_1and2_132KV_AKURBA_TS_33KV_FDR_A2_L14_FD2_End Length=1 Units=km LineCode=11kV_Standard
New Line.L11_33OKV_APIR-LAFIA_LINE_1and2_132KV_AKURBA_TS_33KV_FDR_A2_L14_FD3 Bus1=Bus_SS_L14_LV Bus2=Bus_F11_33OKV_APIR-LAFIA_LINE_1and2_132KV_AKURBA_TS_33KV_FDR_A2_L14_FD3_End Length=1 Units=km LineCode=11kV_Standard
New Line.L11_33OKV_APIR-LAFIA_LINE_1and2_132KV_AKURBA_TS_33KV_FDR_A2_L16_FD1D Bus1=Bus_SS_L16_LV Bus2=Bus_F11_33OKV_APIR-LAFIA_LINE_1and2_132KV_AKURBA_TS_33KV_FDR_A2_L16_FD1D_End Length=1 Units=km LineCode=11kV_Standard
New Line.L11_33OKV_APIR-LAFIA_LINE_1and2_132KV_AKURBA_TS_33KV_FDR_A2_L15_GOVT_FDR Bus1=Bus_SS_L15_LV Bus2=Bus_F11_33OKV_APIR-LAFIA_LINE_1and2_132KV_AKURBA_TS_33KV_FDR_A2_L15_GOVT_FDR_End Length=1 Units=km LineCode=11kV_Standard
New Line.L11_33OKV_APIR-LAFIA_LINE_1and2_132KV_AKURBA_TS_33KV_FDR_A2_L14_FD1 Bus1=Bus_SS_L14_LV Bus2=Bus_F11_33OKV_APIR-LAFIA_LINE_1and2_132KV_AKURBA_TS_33KV_FDR_A2_L14_FD1_End Length=1 Units=km LineCode=11kV_Standard
New Line.L11_33OKV_APIR-LAFIA_LINE_1and2_132KV_AKURBA_TS_33KV_FDR_A2_L14_TAAL Bus1=Bus_SS_L14_LV Bus2=Bus_F11_33OKV_APIR-LAFIA_LINE_1and2_132KV_AKURBA_TS_33KV_FDR_A2_L14_TAAL_End Length=1 Units=km LineCode=11kV_Standard
New Line.L11_33OKV_APIR-LAFIA_LINE_1and2_132KV_AKURBA_TS_33KV_FDR_A2_L16_FULAF Bus1=Bus_SS_L16_LV Bus2=Bus_F11_33OKV_APIR-LAFIA_LINE_1and2_132KV_AKURBA_TS_33KV_FDR_A2_L16_FULAF_End Length=1 Units=km LineCode=11kV_Standard
New Line.L11_132KV_KATAMPE_TS_33KV_LIFECAMP_FDR_T1_LINE_D Bus1=Bus_SS_T1_LV Bus2=Bus_F11_132KV_KATAMPE_TS_33KV_LIFECAMP_FDR_T1_LINE_D_End Length=1 Units=km LineCode=11kV_Standard
New Line.L11_132KV_KATAMPE_1_TS_33KV_GWARINPA_FDR_T1_LINE_B Bus1=Bus_SS_T1_LV Bus2=Bus_F11_132KV_KATAMPE_1_TS_33KV_GWARINPA_FDR_T1_LINE_B_End Length=1 Units=km LineCode=11kV_Standard
New Line.L11_132KV_KATAMPE_1_TS_33KV_GWARINPA_FDR_T1_LINE_A Bus1=Bus_SS_T1_LV Bus2=Bus_F11_132KV_KATAMPE_1_TS_33KV_GWARINPA_FDR_T1_LINE_A_End Length=1 Units=km LineCode=11kV_Standard
New Line.L11_132KV_APO_TS_33KV_FDR_H1_G24_FDR_23 Bus1=Bus_SS_G24_LV Bus2=Bus_F11_132KV_APO_TS_33KV_FDR_H1_G24_FDR_23_End Length=1 Units=km LineCode=11kV_Standard
New Line.L11_132KV_APO_TS_33KV_FDR_H11_G4_1A Bus1=Bus_SS_G4_LV Bus2=Bus_F11_132KV_APO_TS_33KV_FDR_H11_G4_1A_End Length=1 Units=km LineCode=11kV_Standard
New Line.L11_132KV_APO_TS_33KV_FDR_H1_G25_FD2 Bus1=Bus_SS_G25_LV Bus2=Bus_F11_132KV_APO_TS_33KV_FDR_H1_G25_FD2_End Length=1 Units=km LineCode=11kV_Standard
New Line.L11_AT3_H3_R4_FD10 Bus1=Bus_SS_R4_LV Bus2=Bus_F11_AT3_H3_R4_FD10_End Length=1 Units=km LineCode=11kV_Standard
New Line.L11_132KV_APO_TS_33KV_FDR_H3_R4_FD18 Bus1=Bus_SS_R4_LV Bus2=Bus_F11_132KV_APO_TS_33KV_FDR_H3_R4_FD18_End Length=1 Units=km LineCode=11kV_Standard
...