opendss/dss_output/LV_Transformers.dss
! LV distribution substations – 11/0.4 kV transformers
New Transformer.TrLV_CHECK_INN_SIGNATURE_HOTEL Phases=3 Windings=2
~ Buses=[Bus_F11_132KV_KATAMPE_TS_33KV_WUSE_II_FDR_B52_4B_End, Bus_DS_CHECK_INN_SIGNATURE_HOTEL_Consumer] kVA=200 kV=[11, 0.4]
New Transformer.TrLV_URBAN_SHELTER_CLAUSTER_1 Phases=3 Windings=2
~ Buses=[Bus_FLOATING, Bus_DS_URBAN_SHELTER_CLAUSTER_1_Consumer] kVA=1000 kV=[11, 0.4]
New Transformer.TrLV_Lingo_Estate_Saraha_4_DT_1 Phases=3 Windings=2
~ Buses=[Bus_FLOATING, Bus_DS_Lingo_Estate_Saraha_4_DT_1_Consumer] kVA=300 kV=[11, 0.4]
New Transformer.TrLV_Pengansan_Estate_DT_2 Phases=3 Windings=2
~ Buses=[Bus_FLOATING, Bus_DS_Pengansan_Estate_DT_2_Consumer] kVA=300 kV=[11, 0.4]
New Transformer.TrLV_Buchanan_3_DT Phases=3 Windings=2
~ Buses=[Bus_F11_132KV_KATAMPE_TS_33KV_WUSE_II_FDR_B52_2B_End, Bus_DS_Buchanan_3_DT_Consumer] kVA=500 kV=[11, 0.4]
New Transformer.TrLV_BRIA_STREET Phases=3 Windings=2
~ Buses=[Bus_F11_132KV_KATAMPE_TS_33KV_WUSE_II_FDR_B5_4A_End, Bus_DS_BRIA_STREET_Consumer] kVA=500 kV=[11, 0.4]
New Transformer.TrLV_LIBREVILLE_DT_2_34_LIBREVILLE_STREET Phases=3 Windings=2
~ Buses=[Bus_F11_132KV_KATAMPE_TS_33KV_WUSE_II_FDR_B52_3B_End, Bus_DS_LIBREVILLE_DT_2_34_LIBREVILLE_STREET_Consumer] kVA=500 kV=[11, 0.4]
New Transformer.TrLV_FANDRIANA_2_DT Phases=3 Windings=2
~ Buses=[Bus_F11_132KV_KATAMPE_TS_33KV_WUSE_II_FDR_B52_1A_End, Bus_DS_FANDRIANA_2_DT_Consumer] kVA=500 kV=[11, 0.4]
New Transformer.TrLV_FCDA_QUARTERS_DT_2_KASHIM_IBRAHIM_WAY Phases=3 Windings=2
~ Buses=[Bus_F11_132KV_KATAMPE_TS_33KV_WUSE_II_FDR_B52_3B_End, Bus_DS_FCDA_QUARTERS_DT_2_KASHIM_IBRAHIM_WAY_Consumer] kVA=500 kV=[11, 0.4]
New Transformer.TrLV_Damangasa3 Phases=3 Windings=2
~ Buses=[Bus_FLOATING, Bus_DS_Damangasa3_Consumer] kVA=500 kV=[11, 0.4]
New Transformer.TrLV_COMPACT_S_S_BY_NO_9_KAMPALA_STREET_WUSE_2 Phases=3 Windings=2
~ Buses=[Bus_F11_132KV_KATAMPE_TS_33KV_WUSE_II_FDR_B5_3B_End, Bus_DS_COMPACT_S_S_BY_NO_9_KAMPALA_STREET_WUSE_2_Consumer] kVA=500 kV=[11, 0.4]
New Transformer.TrLV_PITTERS_BURG_DT Phases=3 Windings=2
~ Buses=[Bus_F11_132KV_KATAMPE_TS_33KV_WUSE_II_FDR_B52_1A_End, Bus_DS_PITTERS_BURG_DT_Consumer] kVA=500 kV=[11, 0.4]
New Transformer.TrLV_Ecobank_Cadastral_Branch_Public_DT Phases=3 Windings=2
~ Buses=[Bus_F11_132KV_KATAMPE_TS_33KV_WUSE_II_FDR_B5_3B_End, Bus_DS_Ecobank_Cadastral_Branch_Public_DT_Consumer] kVA=500 kV=[11, 0.4]
New Transformer.TrLV_SANTANA_COMPACT_DT Phases=3 Windings=2
~ Buses=[Bus_F11_132KV_KATAMPE_TS_33KV_WUSE_II_FDR_B52_1A_End, Bus_DS_SANTANA_COMPACT_DT_Consumer] kVA=500 kV=[11, 0.4]
New Transformer.TrLV_Birao_1 Phases=3 Windings=2
~ Buses=[Bus_F11_132KV_KATAMPE_TS_33KV_WUSE_II_FDR_B5_4A_End, Bus_DS_Birao_1_Consumer] kVA=500 kV=[11, 0.4]
New Transformer.TrLV_Kumasi_4_DT Phases=3 Windings=2
~ Buses=[Bus_F11_132KV_KATAMPE_TS_33KV_WUSE_II_FDR_B52_4B_End, Bus_DS_Kumasi_4_DT_Consumer] kVA=500 kV=[11, 0.4]
New Transformer.TrLV_Monrovia_transformer_4 Phases=3 Windings=2
~ Buses=[Bus_F11_132KV_KATAMPE_TS_33KV_WUSE_II_FDR_B52_3A_End, Bus_DS_Monrovia_transformer_4_Consumer] kVA=500 kV=[11, 0.4]
New Transformer.TrLV_Tapeta_1_20_Tapeta_Street Phases=3 Windings=2
~ Buses=[Bus_F11_132KV_KATAMPE_TS_33KV_WUSE_II_FDR_B5_4A_End, Bus_DS_Tapeta_1_20_Tapeta_Street_Consumer] kVA=500 kV=[11, 0.4]
New Transformer.TrLV_Lingu_2_compact_DT Phases=3 Windings=2
~ Buses=[Bus_F11_132KV_KATAMPE_TS_33KV_WUSE_II_FDR_B52_3B_End, Bus_DS_Lingu_2_compact_DT_Consumer] kVA=500 kV=[11, 0.4]
New Transformer.TrLV_AGADES_1_50_AGADES_STREET_BY_KFC Phases=3 Windings=2
~ Buses=[Bus_F11_132KV_KATAMPE_TS_33KV_WUSE_II_FDR_B52_4B_End, Bus_DS_AGADES_1_50_AGADES_STREET_BY_KFC_Consumer] kVA=500 kV=[11, 0.4]
New Transformer.TrLV_LIBREVILLE_DT_1_NO_52_LIBREVILLE_STREET Phases=3 Windings=2
~ Buses=[Bus_F11_132KV_KATAMPE_TS_33KV_WUSE_II_FDR_B52_3B_End, Bus_DS_LIBREVILLE_DT_1_NO_52_LIBREVILLE_STREET_Consumer] kVA=500 kV=[11, 0.4]
New Transformer.TrLV_Blantyre_DT Phases=3 Windings=2
~ Buses=[Bus_F11_132KV_KATAMPE_TS_33KV_WUSE_II_FDR_B5_4A_End, Bus_DS_Blantyre_DT_Consumer] kVA=500 kV=[11, 0.4]
New Transformer.TrLV_LUNGI_2_DT Phases=3 Windings=2
~ Buses=[Bus_F11_132KV_KATAMPE_TS_33KV_WUSE_II_FDR_B52_4B_End, Bus_DS_LUNGI_2_DT_Consumer] kVA=500 kV=[11, 0.4]
New Transformer.TrLV_Dakala_DT Phases=3 Windings=2
~ Buses=[Bus_F11_132KV_KATAMPE_TS_33KV_WUSE_II_FDR_B52_2A_End, Bus_DS_Dakala_DT_Consumer] kVA=500 kV=[11, 0.4]
New Transformer.TrLV_MISRATAH_2_DT Phases=3 Windings=2
~ Buses=[Bus_F11_132KV_KATAMPE_TS_33KV_WUSE_II_FDR_B52_1A_End, Bus_DS_MISRATAH_2_DT_Consumer] kVA=500 kV=[11, 0.4]
New Transformer.TrLV_Old_Sterling_Bank_Compact_DT_Wuse_Market Phases=3 Windings=2
~ Buses=[Bus_F11_132KV_KATAMPE_TS_33KV_WUSE_II_FDR_B52_3B_End, Bus_DS_Old_Sterling_Bank_Compact_DT_Wuse_Market_Consumer] kVA=500 kV=[11, 0.4]
New Transformer.TrLV_PREMIER_SCHOOL_NDJAMENA_CRESCENT Phases=3 Windings=2
~ Buses=[Bus_F11_132KV_KATAMPE_TS_33KV_WUSE_II_FDR_B52_3B_End, Bus_DS_PREMIER_SCHOOL_NDJAMENA_CRESCENT_Consumer] kVA=500 kV=[11, 0.4]
New Transformer.TrLV_BUJUMBURA_DT_10_BUJUMBURA_STREET Phases=3 Windings=2
~ Buses=[Bus_F11_132KV_KATAMPE_TS_33KV_WUSE_II_FDR_B52_3B_End, Bus_DS_BUJUMBURA_DT_10_BUJUMBURA_STREET_Consumer] kVA=500 kV=[11, 0.4]
New Transformer.TrLV_Monrovia_DT_2 Phases=3 Windings=2
~ Buses=[Bus_F11_132KV_KATAMPE_TS_33KV_WUSE_II_FDR_B52_3A_End, Bus_DS_Monrovia_DT_2_Consumer] kVA=500 kV=[11, 0.4]
New Transformer.TrLV_Yalinga_DT1 Phases=3 Windings=2
~ Buses=[Bus_F11_132KV_KATAMPE_TS_33KV_WUSE_II_FDR_B5_4A_End, Bus_DS_Yalinga_DT1_Consumer] kVA=500 kV=[11, 0.4]
New Transformer.TrLV_DAMAGAZA_DT_2 Phases=3 Windings=2
~ Buses=[Bus_FLOATING, Bus_DS_DAMAGAZA_DT_2_Consumer] kVA=500 kV=[11, 0.4]
New Transformer.TrLV_AMAL_COURT_DT Phases=3 Windings=2
~ Buses=[Bus_F11_132KV_KATAMPE_TS_33KV_WUSE_II_FDR_B52_1A_End, Bus_DS_AMAL_COURT_DT_Consumer] kVA=500 kV=[11, 0.4]
New Transformer.TrLV_Kandi_close_DT Phases=3 Windings=2
~ Buses=[Bus_F11_132KV_KATAMPE_TS_33KV_WUSE_II_FDR_B52_3A_End, Bus_DS_Kandi_close_DT_Consumer] kVA=500 kV=[11, 0.4]
New Transformer.TrLV_Kumasi_DT_2 Phases=3 Windings=2
~ Buses=[Bus_F11_132KV_KATAMPE_TS_33KV_WUSE_II_FDR_B52_4B_End, Bus_DS_Kumasi_DT_2_Consumer] kVA=500 kV=[11, 0.4]
New Transformer.TrLV_NO_12_PARAKOU_STREET_DT Phases=3 Windings=2
~ Buses=[Bus_F11_132KV_KATAMPE_TS_33KV_WUSE_II_FDR_B52_2A_End, Bus_DS_NO_12_PARAKOU_STREET_DT_Consumer] kVA=200 kV=[11, 0.4]
New Transformer.TrLV_Lobito_2 Phases=3 Windings=2
~ Buses=[Bus_F11_132KV_KATAMPE_TS_33KV_WUSE_II_FDR_B5_3A_End, Bus_DS_Lobito_2_Consumer] kVA=500 kV=[11, 0.4]
New Transformer.TrLV_CASABLANCA_DT Phases=3 Windings=2
~ Buses=[Bus_F11_132KV_KATAMPE_TS_33KV_WUSE_II_FDR_B52_1A_End, Bus_DS_CASABLANCA_DT_Consumer] kVA=500 kV=[11, 0.4]
New Transformer.TrLV_FCDA_QUARTERS_46_Aminu_Kano_Crescent Phases=3 Windings=2
~ Buses=[Bus_F11_132KV_KATAMPE_TS_33KV_WUSE_II_FDR_B52_2B_End, Bus_DS_FCDA_QUARTERS_46_Aminu_Kano_Crescent_Consumer] kVA=500 kV=[11, 0.4]
New Transformer.TrLV_INEC_DT Phases=3 Windings=2
~ Buses=[Bus_F11_132KV_KATAMPE_TS_33KV_WUSE_II_FDR_B5_3B_End, Bus_DS_INEC_DT_Consumer] kVA=500 kV=[11, 0.4]
New Transformer.TrLV_FCDA_Quarters_1_DT Phases=3 Windings=2
~ Buses=[Bus_F11_132KV_KATAMPE_TS_33KV_WUSE_II_FDR_B52_2A_End, Bus_DS_FCDA_Quarters_1_DT_Consumer] kVA=1000 kV=[11, 0.4]
New Transformer.TrLV_Bangui_2 Phases=3 Windings=2
~ Buses=[Bus_F11_132KV_KATAMPE_TS_33KV_WUSE_II_FDR_B5_1B_End, Bus_DS_Bangui_2_Consumer] kVA=500 kV=[11, 0.4]
New Transformer.TrLV_Bangui_1 Phases=3 Windings=2
~ Buses=[Bus_F11_132KV_KATAMPE_TS_33KV_WUSE_II_FDR_B5_1B_End, Bus_DS_Bangui_1_Consumer] kVA=500 kV=[11, 0.4]
New Transformer.TrLV_Birao_3 Phases=3 Windings=2
~ Buses=[Bus_F11_132KV_KATAMPE_TS_33KV_WUSE_II_FDR_B5_4A_End, Bus_DS_Birao_3_Consumer] kVA=500 kV=[11, 0.4]
New Transformer.TrLV_Cairo_3_16_CAIRO_STREET Phases=3 Windings=2
~ Buses=[Bus_F11_132KV_KATAMPE_TS_33KV_WUSE_II_FDR_B5_3B_End, Bus_DS_Cairo_3_16_CAIRO_STREET_Consumer] kVA=630 kV=[11, 0.4]
New Transformer.TrLV_Buchanan_2_DT Phases=3 Windings=2
~ Buses=[Bus_F11_132KV_KATAMPE_TS_33KV_WUSE_II_FDR_B52_2B_End, Bus_DS_Buchanan_2_DT_Consumer] kVA=500 kV=[11, 0.4]
New Transformer.TrLV_NAIROBI_1_DT Phases=3 Windings=2
~ Buses=[Bus_F11_132KV_KATAMPE_TS_33KV_WUSE_II_FDR_B52_1A_End, Bus_DS_NAIROBI_1_DT_Consumer] kVA=500 kV=[11, 0.4]
New Transformer.TrLV_SHERIFF_COMPACT_DT Phases=3 Windings=2
~ Buses=[Bus_F11_132KV_KATAMPE_TS_33KV_WUSE_II_FDR_B52_2A_End, Bus_DS_SHERIFF_COMPACT_DT_Consumer] kVA=500 kV=[11, 0.4]
New Transformer.TrLV_Tapeta_2_8b_TAPETA_STREET Phases=3 Windings=2
~ Buses=[Bus_F11_132KV_KATAMPE_TS_33KV_WUSE_II_FDR_B5_4A_End, Bus_DS_Tapeta_2_8b_TAPETA_STREET_Consumer] kVA=500 kV=[11, 0.4]
New Transformer.TrLV_LIBREVILLE_DT_3_18LIBREVILLE_STREET Phases=3 Windings=2
~ Buses=[Bus_F11_132KV_KATAMPE_TS_33KV_WUSE_II_FDR_B52_3B_End, Bus_DS_LIBREVILLE_DT_3_18LIBREVILLE_STREET_Consumer] kVA=500 kV=[11, 0.4]
New Transformer.TrLV_Blantyre_2_14_Blantyre_street Phases=3 Windings=2
~ Buses=[Bus_F11_132KV_KATAMPE_TS_33KV_WUSE_II_FDR_B5_3B_End, Bus_DS_Blantyre_2_14_Blantyre_street_Consumer] kVA=500 kV=[11, 0.4]
New Transformer.TrLV_Birao_2 Phases=3 Windings=2
~ Buses=[Bus_F11_132KV_KATAMPE_TS_33KV_WUSE_II_FDR_B5_4A_End, Bus_DS_Birao_2_Consumer] kVA=500 kV=[11, 0.4]
New Transformer.TrLV_Durban_2_36_DURBAN_STREET Phases=3 Windings=2
~ Buses=[Bus_F11_132KV_KATAMPE_TS_33KV_WUSE_II_FDR_B5_3B_End, Bus_DS_Durban_2_36_DURBAN_STREET_Consumer] kVA=500 kV=[11, 0.4]
New Transformer.TrLV_Seguela_2_Opposite_6_Seguela_Street Phases=3 Windings=2
~ Buses=[Bus_F11_132KV_KATAMPE_TS_33KV_WUSE_II_FDR_B5_4A_End, Bus_DS_Seguela_2_Opposite_6_Seguela_Street_Consumer] kVA=500 kV=[11, 0.4]
New Transformer.TrLV_Parakou_2_DT Phases=3 Windings=2
~ Buses=[Bus_F11_132KV_KATAMPE_TS_33KV_WUSE_II_FDR_B52_2A_End, Bus_DS_Parakou_2_DT_Consumer] kVA=500 kV=[11, 0.4]
New Transformer.TrLV_GITUA_PLAZA Phases=3 Windings=2
~ Buses=[Bus_F11_132KV_KATAMPE_TS_33KV_WUSE_II_FDR_B5_1B_End, Bus_DS_GITUA_PLAZA_Consumer] kVA=500 kV=[11, 0.4]
New Transformer.TrLV_Pakali_DT Phases=3 Windings=2
~ Buses=[Bus_F11_132KV_KATAMPE_TS_33KV_WUSE_II_FDR_B52_4B_End, Bus_DS_Pakali_DT_Consumer] kVA=500 kV=[11, 0.4]
New Transformer.TrLV_MONROVIA_DT_2_MOROVIA_STREET_OPPOSITE_BON_HOTEL Phases=3 Windings=2
~ Buses=[Bus_F11_132KV_KATAMPE_TS_33KV_WUSE_II_FDR_B52_3A_End, Bus_DS_MONROVIA_DT_2_MOROVIA_STREET_OPPOSITE_BON_HOTEL_Consumer] kVA=500 kV=[11, 0.4]
New Transformer.TrLV_USMAN_BIN_AFFAN_DT Phases=3 Windings=2
~ Buses=[Bus_F11_132KV_KATAMPE_TS_33KV_WUSE_II_FDR_B52_2B_End, Bus_DS_USMAN_BIN_AFFAN_DT_Consumer] kVA=500 kV=[11, 0.4]
New Transformer.TrLV_Pencon_compact Phases=3 Windings=2
~ Buses=[Bus_F11_132KV_KATAMPE_TS_33KV_WUSE_II_FDR_B5_1B_End, Bus_DS_Pencon_compact_Consumer] kVA=100 kV=[11, 0.4]
New Transformer.TrLV_Lobito_3 Phases=3 Windings=2
~ Buses=[Bus_F11_132KV_KATAMPE_TS_33KV_WUSE_II_FDR_B5_3A_End, Bus_DS_Lobito_3_Consumer] kVA=500 kV=[11, 0.4]
New Transformer.TrLV_Embu_compact_DT Phases=3 Windings=2
~ Buses=[Bus_F11_132KV_KATAMPE_TS_33KV_WUSE_II_FDR_B52_4B_End, Bus_DS_Embu_compact_DT_Consumer] kVA=500 kV=[11, 0.4]
New Transformer.TrLV_YALINGA_2 Phases=3 Windings=2
~ Buses=[Bus_F11_132KV_KATAMPE_TS_33KV_WUSE_II_FDR_B5_4A_End, Bus_DS_YALINGA_2_Consumer] kVA=500 kV=[11, 0.4]
New Transformer.TrLV_DBM_COMPACT_DT Phases=3 Windings=2
~ Buses=[Bus_F11_132KV_KATAMPE_TS_33KV_WUSE_II_FDR_B52_1A_End, Bus_DS_DBM_COMPACT_DT_Consumer] kVA=500 kV=[11, 0.4]
New Transformer.TrLV_Kumasi_1_DT Phases=3 Windings=2
~ Buses=[Bus_F11_132KV_KATAMPE_TS_33KV_WUSE_II_FDR_B52_4B_End, Bus_DS_Kumasi_1_DT_Consumer] kVA=500 kV=[11, 0.4]
New Transformer.TrLV_Hombori_street_DT Phases=3 Windings=2
~ Buses=[Bus_F11_132KV_KATAMPE_TS_33KV_WUSE_II_FDR_B5_2B_End, Bus_DS_Hombori_street_DT_Consumer] kVA=500 kV=[11, 0.4]
New Transformer.TrLV_Bangui_dt Phases=3 Windings=2
~ Buses=[Bus_F11_132KV_KATAMPE_TS_33KV_WUSE_II_FDR_B5_3B_End, Bus_DS_Bangui_dt_Consumer] kVA=500 kV=[11, 0.4]
New Transformer.TrLV_KUMASI_6_DT Phases=3 Windings=2
~ Buses=[Bus_F11_132KV_KATAMPE_TS_33KV_WUSE_II_FDR_B52_4B_End, Bus_DS_KUMASI_6_DT_Consumer] kVA=500 kV=[11, 0.4]
New Transformer.TrLV_AGADEZ_3_TRANSFORMER Phases=3 Windings=2
~ Buses=[Bus_F11_132KV_KATAMPE_TS_33KV_WUSE_II_FDR_B52_4B_End, Bus_DS_AGADEZ_3_TRANSFORMER_Consumer] kVA=100 kV=[11, 0.4]
New Transformer.TrLV_COMPACT_S_S_BY_TAPETA_BY_NO_2_SEGUELA Phases=3 Windings=2
~ Buses=[Bus_F11_132KV_KATAMPE_TS_33KV_WUSE_II_FDR_B5_4A_End, Bus_DS_COMPACT_S_S_BY_TAPETA_BY_NO_2_SEGUELA_Consumer] kVA=500 kV=[11, 0.4]
New Transformer.TrLV_PORT_ELIZABETH_DT Phases=3 Windings=2
~ Buses=[Bus_F11_132KV_KATAMPE_TS_33KV_WUSE_II_FDR_B52_1A_End, Bus_DS_PORT_ELIZABETH_DT_Consumer] kVA=500 kV=[11, 0.4]
New Transformer.TrLV_WUMBA_DUSTBIN_DT Phases=3 Windings=2
~ Buses=[Bus_FLOATING, Bus_DS_WUMBA_DUSTBIN_DT_Consumer] kVA=300 kV=[11, 0.4]
New Transformer.TrLV_BANEX_JUNCTION_COMPACT_DT Phases=3 Windings=2
~ Buses=[Bus_F11_132KV_KATAMPE_TS_33KV_WUSE_II_FDR_B52_3A_End, Bus_DS_BANEX_JUNCTION_COMPACT_DT_Consumer] kVA=500 kV=[11, 0.4]
New Transformer.TrLV_Binos_Plaza_DT Phases=3 Windings=2
~ Buses=[Bus_FLOATING, Bus_DS_Binos_Plaza_DT_Consumer] kVA=200 kV=[11, 0.4]
New Transformer.TrLV_Urban_shelter_cluster_2_DT Phases=3 Windings=2
~ Buses=[Bus_FLOATING, Bus_DS_Urban_shelter_cluster_2_DT_Consumer] kVA=1000 kV=[11, 0.4]
New Transformer.TrLV_3rd_Avenue Phases=3 Windings=2
~ Buses=[Bus_FLOATING, Bus_DS_3rd_Avenue_Consumer] kVA=500 kV=[11, 0.4]
New Transformer.TrLV_Efab_City_Estate_DT_8 Phases=3 Windings=2
~ Buses=[Bus_FLOATING, Bus_DS_Efab_City_Estate_DT_8_Consumer] kVA=500 kV=[11, 0.4]
New Transformer.TrLV_Mosque_DT1 Phases=3 Windings=2
~ Buses=[Bus_FLOATING, Bus_DS_Mosque_DT1_Consumer] kVA=500 kV=[11, 0.4]
New Transformer.TrLV_1st_corner_shop Phases=3 Windings=2
~ Buses=[Bus_FLOATING, Bus_DS_1st_corner_shop_Consumer] kVA=500 kV=[11, 0.4]
New Transformer.TrLV_Rd_14_DT1 Phases=3 Windings=2
~ Buses=[Bus_FLOATING, Bus_DS_Rd_14_DT1_Consumer] kVA=500 kV=[11, 0.4]
New Transformer.TrLV_Peace_Court_Estate_DT_3 Phases=3 Windings=2
~ Buses=[Bus_FLOATING, Bus_DS_Peace_Court_Estate_DT_3_Consumer] kVA=300 kV=[11, 0.4]
New Transformer.TrLV_Nzube_Estate_DT_3 Phases=3 Windings=2
~ Buses=[Bus_FLOATING, Bus_DS_Nzube_Estate_DT_3_Consumer] kVA=500 kV=[11, 0.4]
New Transformer.TrLV_13_Road_Efab_City_Estate Phases=3 Windings=2
~ Buses=[Bus_FLOATING, Bus_DS_13_Road_Efab_City_Estate_Consumer] kVA=500 kV=[11, 0.4]
New Transformer.TrLV_AHMADU_BELLO_CLOSE_DT_1 Phases=3 Windings=2
~ Buses=[Bus_FLOATING, Bus_DS_AHMADU_BELLO_CLOSE_DT_1_Consumer] kVA=500 kV=[11, 0.4]
New Transformer.TrLV_Road_12_DT1 Phases=3 Windings=2
~ Buses=[Bus_FLOATING, Bus_DS_Road_12_DT1_Consumer] kVA=500 kV=[11, 0.4]
New Transformer.TrLV_Peace_Court_Estate_DT_2 Phases=3 Windings=2
~ Buses=[Bus_FLOATING, Bus_DS_Peace_Court_Estate_DT_2_Consumer] kVA=300 kV=[11, 0.4]
New Transformer.TrLV_NZUBE_DT2 Phases=3 Windings=2
~ Buses=[Bus_FLOATING, Bus_DS_NZUBE_DT2_Consumer] kVA=500 kV=[11, 0.4]
New Transformer.TrLV_Muhammedu_Bihari_DT Phases=3 Windings=2
~ Buses=[Bus_FLOATING, Bus_DS_Muhammedu_Bihari_DT_Consumer] kVA=500 kV=[11, 0.4]
New Transformer.TrLV_Efab_Estate_DT_1 Phases=3 Windings=2
~ Buses=[Bus_FLOATING, Bus_DS_Efab_Estate_DT_1_Consumer] kVA=500 kV=[11, 0.4]
New Transformer.TrLV_DIG_DT1 Phases=3 Windings=2
...